MODEL 1
REMARK VINA RESULT:      -7.8      0.000      0.000
REMARK  3 active torsions:
REMARK  status: ('A' for Active; 'I' for Inactive)
REMARK    1  A    between atoms: C05_5  and  N01_25 
REMARK    2  A    between atoms: C11_11  and  C12_12 
REMARK    3  A    between atoms: C11_11  and  N01_25 
ROOT
ATOM      1  C12 UNK A   1      48.000  50.531  45.990  1.00  0.00    -0.098 C 
ATOM      2  C13 UNK A   1      48.579  51.489  45.560  1.00  0.00    -0.152 C 
ATOM      3  H10 UNK A   1      49.104  52.330  45.166  1.00  0.00     0.166 H 
ENDROOT
BRANCH   1   4
ATOM      4  C11 UNK A   1      47.310  49.338  46.485  1.00  0.00     0.047 C 
ATOM      5  H09 UNK A   1      47.979  48.817  47.182  1.00  0.00     0.083 H 
ATOM      6  H11 UNK A   1      47.115  48.668  45.638  1.00  0.00     0.083 H 
BRANCH   4   7
ATOM      7  N01 UNK A   1      46.037  49.677  47.142  1.00  0.00    -0.379 N 
ATOM      8  H05 UNK A   1      46.053  50.583  47.592  1.00  0.00     0.160 HD
BRANCH   7   9
ATOM      9  C05 UNK A   1      45.303  48.714  47.833  1.00  0.00     0.039 A 
ATOM     10  C04 UNK A   1      45.241  48.832  49.234  1.00  0.00    -0.057 A 
ATOM     11  C03 UNK A   1      44.545  47.890  50.006  1.00  0.00    -0.080 A 
ATOM     12  H07 UNK A   1      45.752  49.653  49.728  1.00  0.00     0.086 H 
ATOM     13  C02 UNK A   1      43.897  46.816  49.383  1.00  0.00    -0.072 A 
ATOM     14  H13 UNK A   1      44.513  47.991  51.088  1.00  0.00     0.083 H 
ATOM     15  C01 UNK A   1      43.927  46.693  47.983  1.00  0.00    -0.024 A 
ATOM     16  H12 UNK A   1      43.361  46.089  49.986  1.00  0.00     0.084 H 
ATOM     17  C06 UNK A   1      44.620  47.646  47.196  1.00  0.00     0.001 A 
ATOM     18  C07 UNK A   1      43.252  45.621  47.372  1.00  0.00    -0.072 A 
ATOM     19  C08 UNK A   1      44.583  47.517  45.789  1.00  0.00    -0.070 A 
ATOM     20  C09 UNK A   1      43.904  46.447  45.186  1.00  0.00    -0.082 A 
ATOM     21  H03 UNK A   1      45.065  48.247  45.148  1.00  0.00     0.084 H 
ATOM     22  C10 UNK A   1      43.245  45.494  45.976  1.00  0.00    -0.082 A 
ATOM     23  H04 UNK A   1      43.887  46.359  44.103  1.00  0.00     0.083 H 
ATOM     24  H01 UNK A   1      42.720  44.667  45.506  1.00  0.00     0.083 H 
ATOM     25  H02 UNK A   1      42.727  44.889  47.979  1.00  0.00     0.084 H 
ENDBRANCH   7   9
ENDBRANCH   4   7
ENDBRANCH   1   4
TORSDOF 3
ENDMDL
MODEL 2
REMARK VINA RESULT:      -7.4      0.676      2.828
REMARK  3 active torsions:
REMARK  status: ('A' for Active; 'I' for Inactive)
REMARK    1  A    between atoms: C05_5  and  N01_25 
REMARK    2  A    between atoms: C11_11  and  C12_12 
REMARK    3  A    between atoms: C11_11  and  N01_25 
ROOT
ATOM      1  C12 UNK A   1      48.189  50.644  45.828  1.00  0.00    -0.098 C 
ATOM      2  C13 UNK A   1      48.667  51.694  45.500  1.00  0.00    -0.152 C 
ATOM      3  H10 UNK A   1      49.102  52.627  45.223  1.00  0.00     0.166 H 
ENDROOT
BRANCH   1   4
ATOM      4  C11 UNK A   1      47.634  49.359  46.260  1.00  0.00     0.047 C 
ATOM      5  H09 UNK A   1      48.161  49.045  47.171  1.00  0.00     0.083 H 
ATOM      6  H11 UNK A   1      47.830  48.611  45.480  1.00  0.00     0.083 H 
BRANCH   4   7
ATOM      7  N01 UNK A   1      46.185  49.444  46.501  1.00  0.00    -0.379 N 
ATOM      8  H05 UNK A   1      45.941  50.121  47.212  1.00  0.00     0.160 HD
BRANCH   7   9
ATOM      9  C05 UNK A   1      45.387  48.300  46.509  1.00  0.00     0.039 A 
ATOM     10  C04 UNK A   1      45.199  47.636  45.283  1.00  0.00    -0.057 A 
ATOM     11  C03 UNK A   1      44.389  46.493  45.200  1.00  0.00    -0.080 A 
ATOM     12  H07 UNK A   1      45.671  48.020  44.384  1.00  0.00     0.086 H 
ATOM     13  C02 UNK A   1      43.759  45.997  46.348  1.00  0.00    -0.072 A 
ATOM     14  H13 UNK A   1      44.247  45.996  44.244  1.00  0.00     0.083 H 
ATOM     15  C01 UNK A   1      43.953  46.633  47.587  1.00  0.00    -0.024 A 
ATOM     16  H12 UNK A   1      43.132  45.112  46.277  1.00  0.00     0.084 H 
ATOM     17  C06 UNK A   1      44.777  47.781  47.680  1.00  0.00     0.001 A 
ATOM     18  C07 UNK A   1      43.330  46.108  48.733  1.00  0.00    -0.072 A 
ATOM     19  C08 UNK A   1      44.989  48.360  48.952  1.00  0.00    -0.070 A 
ATOM     20  C09 UNK A   1      44.368  47.830  50.093  1.00  0.00    -0.082 A 
ATOM     21  H03 UNK A   1      45.646  49.215  49.074  1.00  0.00     0.084 H 
ATOM     22  C10 UNK A   1      43.533  46.708  49.984  1.00  0.00    -0.082 A 
ATOM     23  H04 UNK A   1      44.538  48.287  51.064  1.00  0.00     0.083 H 
ATOM     24  H01 UNK A   1      43.054  46.299  50.869  1.00  0.00     0.083 H 
ATOM     25  H02 UNK A   1      42.695  45.230  48.657  1.00  0.00     0.084 H 
ENDBRANCH   7   9
ENDBRANCH   4   7
ENDBRANCH   1   4
TORSDOF 3
ENDMDL
MODEL 3
REMARK VINA RESULT:      -6.9      1.672      4.520
REMARK  3 active torsions:
REMARK  status: ('A' for Active; 'I' for Inactive)
REMARK    1  A    between atoms: C05_5  and  N01_25 
REMARK    2  A    between atoms: C11_11  and  C12_12 
REMARK    3  A    between atoms: C11_11  and  N01_25 
ROOT
ATOM      1  C12 UNK A   1      44.864  46.369  50.677  1.00  0.00    -0.098 C 
ATOM      2  C13 UNK A   1      45.568  45.557  51.209  1.00  0.00    -0.152 C 
ATOM      3  H10 UNK A   1      46.198  44.829  51.667  1.00  0.00     0.166 H 
ENDROOT
BRANCH   1   4
ATOM      4  C11 UNK A   1      44.021  47.350  49.989  1.00  0.00     0.047 C 
ATOM      5  H09 UNK A   1      43.824  48.179  50.680  1.00  0.00     0.083 H 
ATOM      6  H11 UNK A   1      43.062  46.877  49.743  1.00  0.00     0.083 H 
BRANCH   4   7
ATOM      7  N01 UNK A   1      44.654  47.841  48.754  1.00  0.00    -0.379 N 
ATOM      8  H05 UNK A   1      44.677  48.851  48.696  1.00  0.00     0.160 HD
BRANCH   7   9
ATOM      9  C05 UNK A   1      44.435  47.207  47.531  1.00  0.00     0.039 A 
ATOM     10  C04 UNK A   1      43.362  46.300  47.457  1.00  0.00    -0.057 A 
ATOM     11  C03 UNK A   1      43.090  45.601  46.271  1.00  0.00    -0.080 A 
ATOM     12  H07 UNK A   1      42.744  46.124  48.333  1.00  0.00     0.086 H 
ATOM     13  C02 UNK A   1      43.890  45.806  45.140  1.00  0.00    -0.072 A 
ATOM     14  H13 UNK A   1      42.262  44.898  46.232  1.00  0.00     0.083 H 
ATOM     15  C01 UNK A   1      44.953  46.724  45.186  1.00  0.00    -0.024 A 
ATOM     16  H12 UNK A   1      43.676  45.260  44.225  1.00  0.00     0.084 H 
ATOM     17  C06 UNK A   1      45.227  47.441  46.377  1.00  0.00     0.001 A 
ATOM     18  C07 UNK A   1      45.732  46.933  44.035  1.00  0.00    -0.072 A 
ATOM     19  C08 UNK A   1      46.271  48.394  46.369  1.00  0.00    -0.070 A 
ATOM     20  C09 UNK A   1      47.042  48.601  45.215  1.00  0.00    -0.082 A 
ATOM     21  H03 UNK A   1      46.487  48.994  47.247  1.00  0.00     0.084 H 
ATOM     22  C10 UNK A   1      46.779  47.866  44.049  1.00  0.00    -0.082 A 
ATOM     23  H04 UNK A   1      47.843  49.335  45.224  1.00  0.00     0.083 H 
ATOM     24  H01 UNK A   1      47.377  48.028  43.157  1.00  0.00     0.083 H 
ATOM     25  H02 UNK A   1      45.522  46.378  43.125  1.00  0.00     0.084 H 
ENDBRANCH   7   9
ENDBRANCH   4   7
ENDBRANCH   1   4
TORSDOF 3
ENDMDL
MODEL 4
REMARK VINA RESULT:      -6.6     20.321     21.528
REMARK  3 active torsions:
REMARK  status: ('A' for Active; 'I' for Inactive)
REMARK    1  A    between atoms: C05_5  and  N01_25 
REMARK    2  A    between atoms: C11_11  and  C12_12 
REMARK    3  A    between atoms: C11_11  and  N01_25 
ROOT
ATOM      1  C12 UNK A   1      40.846  27.914  43.647  1.00  0.00    -0.098 C 
ATOM      2  C13 UNK A   1      40.923  28.353  44.760  1.00  0.00    -0.152 C 
ATOM      3  H10 UNK A   1      40.986  28.759  45.744  1.00  0.00     0.166 H 
ENDROOT
BRANCH   1   4
ATOM      4  C11 UNK A   1      40.733  27.413  42.275  1.00  0.00     0.047 C 
ATOM      5  H09 UNK A   1      40.253  28.188  41.664  1.00  0.00     0.083 H 
ATOM      6  H11 UNK A   1      40.081  26.530  42.276  1.00  0.00     0.083 H 
BRANCH   4   7
ATOM      7  N01 UNK A   1      42.045  27.050  41.717  1.00  0.00    -0.379 N 
ATOM      8  H05 UNK A   1      42.650  26.597  42.390  1.00  0.00     0.160 HD
BRANCH   7   9
ATOM      9  C05 UNK A   1      42.714  27.898  40.835  1.00  0.00     0.039 A 
ATOM     10  C04 UNK A   1      41.941  28.850  40.145  1.00  0.00    -0.057 A 
ATOM     11  C03 UNK A   1      42.532  29.724  39.220  1.00  0.00    -0.080 A 
ATOM     12  H07 UNK A   1      40.869  28.900  40.315  1.00  0.00     0.086 H 
ATOM     13  C02 UNK A   1      43.910  29.658  38.977  1.00  0.00    -0.072 A 
ATOM     14  H13 UNK A   1      41.920  30.448  38.689  1.00  0.00     0.083 H 
ATOM     15  C01 UNK A   1      44.703  28.730  39.673  1.00  0.00    -0.024 A 
ATOM     16  H12 UNK A   1      44.362  30.337  38.259  1.00  0.00     0.084 H 
ATOM     17  C06 UNK A   1      44.115  27.851  40.616  1.00  0.00     0.001 A 
ATOM     18  C07 UNK A   1      46.088  28.693  39.433  1.00  0.00    -0.072 A 
ATOM     19  C08 UNK A   1      44.953  26.968  41.333  1.00  0.00    -0.070 A 
ATOM     20  C09 UNK A   1      46.335  26.938  41.092  1.00  0.00    -0.082 A 
ATOM     21  H03 UNK A   1      44.550  26.307  42.093  1.00  0.00     0.084 H 
ATOM     22  C10 UNK A   1      46.903  27.795  40.137  1.00  0.00    -0.082 A 
ATOM     23  H04 UNK A   1      46.967  26.253  41.649  1.00  0.00     0.083 H 
ATOM     24  H01 UNK A   1      47.973  27.770  39.952  1.00  0.00     0.083 H 
ATOM     25  H02 UNK A   1      46.535  29.364  38.706  1.00  0.00     0.084 H 
ENDBRANCH   7   9
ENDBRANCH   4   7
ENDBRANCH   1   4
TORSDOF 3
ENDMDL
MODEL 5
REMARK VINA RESULT:      -6.4     16.189     17.975
REMARK  3 active torsions:
REMARK  status: ('A' for Active; 'I' for Inactive)
REMARK    1  A    between atoms: C05_5  and  N01_25 
REMARK    2  A    between atoms: C11_11  and  C12_12 
REMARK    3  A    between atoms: C11_11  and  N01_25 
ROOT
ATOM      1  C12 UNK A   1      53.736  30.165  41.920  1.00  0.00    -0.098 C 
ATOM      2  C13 UNK A   1      54.167  29.611  42.892  1.00  0.00    -0.152 C 
ATOM      3  H10 UNK A   1      54.547  29.103  43.750  1.00  0.00     0.166 H 
ENDROOT
BRANCH   1   4
ATOM      4  C11 UNK A   1      53.206  30.804  40.713  1.00  0.00     0.047 C 
ATOM      5  H09 UNK A   1      52.140  30.555  40.632  1.00  0.00     0.083 H 
ATOM      6  H11 UNK A   1      53.720  30.384  39.839  1.00  0.00     0.083 H 
BRANCH   4   7
ATOM      7  N01 UNK A   1      53.400  32.262  40.739  1.00  0.00    -0.379 N 
ATOM      8  H05 UNK A   1      53.822  32.591  41.597  1.00  0.00     0.160 HD
BRANCH   7   9
ATOM      9  C05 UNK A   1      52.440  33.126  40.213  1.00  0.00     0.039 A 
ATOM     10  C04 UNK A   1      52.422  33.298  38.816  1.00  0.00    -0.057 A 
ATOM     11  C03 UNK A   1      51.505  34.169  38.208  1.00  0.00    -0.080 A 
ATOM     12  H07 UNK A   1      53.137  32.762  38.198  1.00  0.00     0.086 H 
ATOM     13  C02 UNK A   1      50.589  34.880  38.995  1.00  0.00    -0.072 A 
ATOM     14  H13 UNK A   1      51.509  34.296  37.129  1.00  0.00     0.083 H 
ATOM     15  C01 UNK A   1      50.576  34.705  40.390  1.00  0.00    -0.024 A 
ATOM     16  H12 UNK A   1      49.883  35.554  38.519  1.00  0.00     0.084 H 
ATOM     17  C06 UNK A   1      51.492  33.820  41.009  1.00  0.00     0.001 A 
ATOM     18  C07 UNK A   1      49.635  35.410  41.161  1.00  0.00    -0.072 A 
ATOM     19  C08 UNK A   1      51.412  33.632  42.407  1.00  0.00    -0.070 A 
ATOM     20  C09 UNK A   1      50.468  34.335  43.171  1.00  0.00    -0.082 A 
ATOM     21  H03 UNK A   1      52.067  32.932  42.916  1.00  0.00     0.084 H 
ATOM     22  C10 UNK A   1      49.584  35.230  42.551  1.00  0.00    -0.082 A 
ATOM     23  H04 UNK A   1      50.420  34.183  44.246  1.00  0.00     0.083 H 
ATOM     24  H01 UNK A   1      48.854  35.773  43.144  1.00  0.00     0.083 H 
ATOM     25  H02 UNK A   1      48.937  36.092  40.684  1.00  0.00     0.084 H 
ENDBRANCH   7   9
ENDBRANCH   4   7
ENDBRANCH   1   4
TORSDOF 3
ENDMDL
MODEL 6
REMARK VINA RESULT:      -6.4     20.928     22.688
REMARK  3 active torsions:
REMARK  status: ('A' for Active; 'I' for Inactive)
REMARK    1  A    between atoms: C05_5  and  N01_25 
REMARK    2  A    between atoms: C11_11  and  C12_12 
REMARK    3  A    between atoms: C11_11  and  N01_25 
ROOT
ATOM      1  C12 UNK A   1      43.420  23.635  41.519  1.00  0.00    -0.098 C 
ATOM      2  C13 UNK A   1      43.455  23.222  40.395  1.00  0.00    -0.152 C 
ATOM      3  H10 UNK A   1      43.472  22.862  39.391  1.00  0.00     0.166 H 
ENDROOT
BRANCH   1   4
ATOM      4  C11 UNK A   1      43.346  24.167  42.883  1.00  0.00     0.047 C 
ATOM      5  H09 UNK A   1      43.795  23.433  43.564  1.00  0.00     0.083 H 
ATOM      6  H11 UNK A   1      42.289  24.282  43.158  1.00  0.00     0.083 H 
BRANCH   4   7
ATOM      7  N01 UNK A   1      44.024  25.468  42.998  1.00  0.00    -0.379 N 
ATOM      8  H05 UNK A   1      44.227  25.726  43.956  1.00  0.00     0.160 HD
BRANCH   7   9
ATOM      9  C05 UNK A   1      43.664  26.543  42.186  1.00  0.00     0.039 A 
ATOM     10  C04 UNK A   1      42.341  27.015  42.288  1.00  0.00    -0.057 A 
ATOM     11  C03 UNK A   1      41.891  28.075  41.488  1.00  0.00    -0.080 A 
ATOM     12  H07 UNK A   1      41.653  26.541  42.983  1.00  0.00     0.086 H 
ATOM     13  C02 UNK A   1      42.763  28.682  40.575  1.00  0.00    -0.072 A 
ATOM     14  H13 UNK A   1      40.865  28.422  41.573  1.00  0.00     0.083 H 
ATOM     15  C01 UNK A   1      44.094  28.241  40.475  1.00  0.00    -0.024 A 
ATOM     16  H12 UNK A   1      42.408  29.502  39.957  1.00  0.00     0.084 H 
ATOM     17  C06 UNK A   1      44.559  27.177  41.286  1.00  0.00     0.001 A 
ATOM     18  C07 UNK A   1      44.962  28.877  39.569  1.00  0.00    -0.072 A 
ATOM     19  C08 UNK A   1      45.917  26.798  41.193  1.00  0.00    -0.070 A 
ATOM     20  C09 UNK A   1      46.779  27.439  40.290  1.00  0.00    -0.082 A 
ATOM     21  H03 UNK A   1      46.324  26.016  41.826  1.00  0.00     0.084 H 
ATOM     22  C10 UNK A   1      46.301  28.473  39.472  1.00  0.00    -0.082 A 
ATOM     23  H04 UNK A   1      47.820  27.135  40.228  1.00  0.00     0.083 H 
ATOM     24  H01 UNK A   1      46.971  28.968  38.774  1.00  0.00     0.083 H 
ATOM     25  H02 UNK A   1      44.601  29.689  38.944  1.00  0.00     0.084 H 
ENDBRANCH   7   9
ENDBRANCH   4   7
ENDBRANCH   1   4
TORSDOF 3
ENDMDL
MODEL 7
REMARK VINA RESULT:      -6.3     15.597     17.050
REMARK  3 active torsions:
REMARK  status: ('A' for Active; 'I' for Inactive)
REMARK    1  A    between atoms: C05_5  and  N01_25 
REMARK    2  A    between atoms: C11_11  and  C12_12 
REMARK    3  A    between atoms: C11_11  and  N01_25 
ROOT
ATOM      1  C12 UNK A   1      54.444  33.001  43.307  1.00  0.00    -0.098 C 
ATOM      2  C13 UNK A   1      55.499  32.660  42.852  1.00  0.00    -0.152 C 
ATOM      3  H10 UNK A   1      56.446  32.369  42.456  1.00  0.00     0.166 H 
ENDROOT
BRANCH   1   4
ATOM      4  C11 UNK A   1      53.174  33.447  43.887  1.00  0.00     0.047 C 
ATOM      5  H09 UNK A   1      53.186  34.543  43.941  1.00  0.00     0.083 H 
ATOM      6  H11 UNK A   1      53.100  33.058  44.911  1.00  0.00     0.083 H 
BRANCH   4   7
ATOM      7  N01 UNK A   1      52.021  32.977  43.103  1.00  0.00    -0.379 N 
ATOM      8  H05 UNK A   1      52.152  32.048  42.723  1.00  0.00     0.160 HD
BRANCH   7   9
ATOM      9  C05 UNK A   1      51.323  33.840  42.258  1.00  0.00     0.039 A 
ATOM     10  C04 UNK A   1      50.453  34.768  42.861  1.00  0.00    -0.057 A 
ATOM     11  C03 UNK A   1      49.694  35.654  42.082  1.00  0.00    -0.080 A 
ATOM     12  H07 UNK A   1      50.353  34.789  43.942  1.00  0.00     0.086 H 
ATOM     13  C02 UNK A   1      49.800  35.625  40.685  1.00  0.00    -0.072 A 
ATOM     14  H13 UNK A   1      49.020  36.359  42.562  1.00  0.00     0.083 H 
ATOM     15  C01 UNK A   1      50.681  34.722  40.066  1.00  0.00    -0.024 A 
ATOM     16  H12 UNK A   1      49.209  36.313  40.088  1.00  0.00     0.084 H 
ATOM     17  C06 UNK A   1      51.458  33.830  40.846  1.00  0.00     0.001 A 
ATOM     18  C07 UNK A   1      50.791  34.722  38.664  1.00  0.00    -0.072 A 
ATOM     19  C08 UNK A   1      52.370  32.974  40.189  1.00  0.00    -0.070 A 
ATOM     20  C09 UNK A   1      52.478  32.981  38.790  1.00  0.00    -0.082 A 
ATOM     21  H03 UNK A   1      53.013  32.305  40.751  1.00  0.00     0.084 H 
ATOM     22  C10 UNK A   1      51.684  33.849  38.026  1.00  0.00    -0.082 A 
ATOM     23  H04 UNK A   1      53.182  32.316  38.298  1.00  0.00     0.083 H 
ATOM     24  H01 UNK A   1      51.771  33.854  36.943  1.00  0.00     0.083 H 
ATOM     25  H02 UNK A   1      50.190  35.403  38.068  1.00  0.00     0.084 H 
ENDBRANCH   7   9
ENDBRANCH   4   7
ENDBRANCH   1   4
TORSDOF 3
ENDMDL
MODEL 8
REMARK VINA RESULT:      -6.3     20.577     22.509
REMARK  3 active torsions:
REMARK  status: ('A' for Active; 'I' for Inactive)
REMARK    1  A    between atoms: C05_5  and  N01_25 
REMARK    2  A    between atoms: C11_11  and  C12_12 
REMARK    3  A    between atoms: C11_11  and  N01_25 
ROOT
ATOM      1  C12 UNK A   1      43.811  23.570  42.676  1.00  0.00    -0.098 C 
ATOM      2  C13 UNK A   1      43.213  22.920  43.486  1.00  0.00    -0.152 C 
ATOM      3  H10 UNK A   1      42.690  22.348  44.219  1.00  0.00     0.166 H 
ENDROOT
BRANCH   1   4
ATOM      4  C11 UNK A   1      44.559  24.389  41.718  1.00  0.00     0.047 C 
ATOM      5  H09 UNK A   1      44.105  24.260  40.727  1.00  0.00     0.083 H 
ATOM      6  H11 UNK A   1      45.591  24.017  41.669  1.00  0.00     0.083 H 
BRANCH   4   7
ATOM      7  N01 UNK A   1      44.569  25.808  42.106  1.00  0.00    -0.379 N 
ATOM      8  H05 UNK A   1      43.761  26.076  42.652  1.00  0.00     0.160 HD
BRANCH   7   9
ATOM      9  C05 UNK A   1      45.007  26.794  41.221  1.00  0.00     0.039 A 
ATOM     10  C04 UNK A   1      46.387  26.850  40.949  1.00  0.00    -0.057 A 
ATOM     11  C03 UNK A   1      46.912  27.828  40.091  1.00  0.00    -0.080 A 
ATOM     12  H07 UNK A   1      47.058  26.139  41.421  1.00  0.00     0.086 H 
ATOM     13  C02 UNK A   1      46.059  28.763  39.490  1.00  0.00    -0.072 A 
ATOM     14  H13 UNK A   1      47.981  27.863  39.897  1.00  0.00     0.083 H 
ATOM     15  C01 UNK A   1      44.675  28.709  39.731  1.00  0.00    -0.024 A 
ATOM     16  H12 UNK A   1      46.472  29.519  38.827  1.00  0.00     0.084 H 
ATOM     17  C06 UNK A   1      44.136  27.718  40.588  1.00  0.00     0.001 A 
ATOM     18  C07 UNK A   1      43.831  29.641  39.101  1.00  0.00    -0.072 A 
ATOM     19  C08 UNK A   1      42.735  27.664  40.764  1.00  0.00    -0.070 A 
ATOM     20  C09 UNK A   1      41.898  28.595  40.130  1.00  0.00    -0.082 A 
ATOM     21  H03 UNK A   1      42.278  26.896  41.379  1.00  0.00     0.084 H 
ATOM     22  C10 UNK A   1      42.445  29.588  39.304  1.00  0.00    -0.082 A 
ATOM     23  H04 UNK A   1      40.822  28.543  40.276  1.00  0.00     0.083 H 
ATOM     24  H01 UNK A   1      41.794  30.307  38.814  1.00  0.00     0.083 H 
ATOM     25  H02 UNK A   1      44.248  30.403  38.449  1.00  0.00     0.084 H 
ENDBRANCH   7   9
ENDBRANCH   4   7
ENDBRANCH   1   4
TORSDOF 3
ENDMDL
MODEL 9
REMARK VINA RESULT:      -6.0      1.625      4.754
REMARK  3 active torsions:
REMARK  status: ('A' for Active; 'I' for Inactive)
REMARK    1  A    between atoms: C05_5  and  N01_25 
REMARK    2  A    between atoms: C11_11  and  C12_12 
REMARK    3  A    between atoms: C11_11  and  N01_25 
ROOT
ATOM      1  C12 UNK A   1      44.912  47.648  49.918  1.00  0.00    -0.098 C 
ATOM      2  C13 UNK A   1      45.044  46.631  50.539  1.00  0.00    -0.152 C 
ATOM      3  H10 UNK A   1      45.176  45.723  51.083  1.00  0.00     0.166 H 
ENDROOT
BRANCH   1   4
ATOM      4  C11 UNK A   1      44.792  48.887  49.145  1.00  0.00     0.047 C 
ATOM      5  H09 UNK A   1      44.840  49.734  49.842  1.00  0.00     0.083 H 
ATOM      6  H11 UNK A   1      43.807  48.904  48.659  1.00  0.00     0.083 H 
BRANCH   4   7
ATOM      7  N01 UNK A   1      45.843  48.995  48.121  1.00  0.00    -0.379 N 
ATOM      8  H05 UNK A   1      46.228  49.928  48.045  1.00  0.00     0.160 HD
BRANCH   7   9
ATOM      9  C05 UNK A   1      45.733  48.327  46.902  1.00  0.00     0.039 A 
ATOM     10  C04 UNK A   1      44.784  47.291  46.816  1.00  0.00    -0.057 A 
ATOM     11  C03 UNK A   1      44.629  46.552  45.634  1.00  0.00    -0.080 A 
ATOM     12  H07 UNK A   1      44.175  47.047  47.682  1.00  0.00     0.086 H 
ATOM     13  C02 UNK A   1      45.422  46.844  44.517  1.00  0.00    -0.072 A 
ATOM     14  H13 UNK A   1      43.898  45.750  45.587  1.00  0.00     0.083 H 
ATOM     15  C01 UNK A   1      46.359  47.890  44.574  1.00  0.00    -0.024 A 
ATOM     16  H12 UNK A   1      45.298  46.267  43.605  1.00  0.00     0.084 H 
ATOM     17  C06 UNK A   1      46.515  48.647  45.762  1.00  0.00     0.001 A 
ATOM     18  C07 UNK A   1      47.131  48.185  43.437  1.00  0.00    -0.072 A 
ATOM     19  C08 UNK A   1      47.430  49.724  45.763  1.00  0.00    -0.070 A 
ATOM     20  C09 UNK A   1      48.195  50.015  44.623  1.00  0.00    -0.082 A 
ATOM     21  H03 UNK A   1      47.550  50.355  46.637  1.00  0.00     0.084 H 
ATOM     22  C10 UNK A   1      48.052  49.242  43.461  1.00  0.00    -0.082 A 
ATOM     23  H04 UNK A   1      48.896  50.845  44.639  1.00  0.00     0.083 H 
ATOM     24  H01 UNK A   1      48.644  49.469  42.580  1.00  0.00     0.083 H 
ATOM     25  H02 UNK A   1      47.013  47.598  42.530  1.00  0.00     0.084 H 
ENDBRANCH   7   9
ENDBRANCH   4   7
ENDBRANCH   1   4
TORSDOF 3
ENDMDL
