MODEL 1
REMARK VINA RESULT:      -7.1      0.000      0.000
REMARK  Name = BNL
REMARK  2 active torsions:
REMARK  status: ('A' for Active; 'I' for Inactive)
REMARK    1  A    between atoms: C02_2  and  C07_18
REMARK    2  A    between atoms: C02_2  and  N01_28
REMARK                            x       y       z     vdW  Elec       q    Type
REMARK                         _______ _______ _______ _____ _____    ______ ____
ROOT
ATOM      1  C10 UNK A   1      42.208  28.278  40.441  0.00  0.00    +0.076 C 
ATOM      2  C09 UNK A   1      44.203  27.441  40.704  0.00  0.00    +0.040 C 
ATOM      3  C11 UNK A   1      45.340  26.694  41.047  0.00  0.00    +0.024 C 
ATOM      4  C12 UNK A   1      46.591  27.137  40.571  0.00  0.00    +0.002 C 
ATOM      5  C13 UNK A   1      46.688  28.300  39.772  0.00  0.00    +0.001 C 
ATOM      6  C14 UNK A   1      45.534  29.043  39.444  0.00  0.00    +0.010 C 
ATOM      7  C15 UNK A   1      44.301  28.589  39.933  0.00  0.00    -0.003 C 
ATOM      8  N01 UNK A   1      42.870  27.207  41.043  0.00  0.00    -0.302 N 
ATOM      9  C08 UNK A   1      43.044  29.121  39.770  0.00  0.00    +0.025 C 
ENDROOT
BRANCH   8  10
ATOM     10  C02 UNK A   1      42.284  25.998  41.645  0.00  0.00    +0.146 C 
BRANCH  10  16
ATOM     11  C16 UNK A   1      43.136  23.784  40.725  0.00  0.00    +0.005 C 
ATOM     12  C03 UNK A   1      43.047  22.699  39.836  0.00  0.00    +0.000 C 
ATOM     13  C04 UNK A   1      41.993  22.634  38.910  0.00  0.00    +0.000 C 
ATOM     14  C05 UNK A   1      41.030  23.656  38.873  0.00  0.00    +0.000 C 
ATOM     15  C06 UNK A   1      41.126  24.746  39.756  0.00  0.00    +0.005 C 
ATOM     16  C07 UNK A   1      42.175  24.813  40.693  0.00  0.00    -0.030 C 
ENDBRANCH  10  16
ENDBRANCH   8  10
TORSDOF 2
ENDMDL
MODEL 2
REMARK VINA RESULT:      -7.1      2.482      3.957
REMARK  Name = BNL
REMARK  2 active torsions:
REMARK  status: ('A' for Active; 'I' for Inactive)
REMARK    1  A    between atoms: C02_2  and  C07_18
REMARK    2  A    between atoms: C02_2  and  N01_28
REMARK                            x       y       z     vdW  Elec       q    Type
REMARK                         _______ _______ _______ _____ _____    ______ ____
ROOT
ATOM      1  C10 UNK A   1      42.554  29.260  39.636  0.00  0.00    +0.076 C 
ATOM      2  C09 UNK A   1      43.878  27.788  40.547  0.00  0.00    +0.040 C 
ATOM      3  C11 UNK A   1      44.468  26.732  41.257  0.00  0.00    +0.024 C 
ATOM      4  C12 UNK A   1      45.870  26.594  41.192  0.00  0.00    +0.002 C 
ATOM      5  C13 UNK A   1      46.650  27.495  40.430  0.00  0.00    +0.001 C 
ATOM      6  C14 UNK A   1      46.038  28.556  39.728  0.00  0.00    +0.010 C 
ATOM      7  C15 UNK A   1      44.644  28.679  39.812  0.00  0.00    -0.003 C 
ATOM      8  N01 UNK A   1      42.528  28.127  40.450  0.00  0.00    -0.302 N 
ATOM      9  C08 UNK A   1      43.811  29.612  39.240  0.00  0.00    +0.025 C 
ENDROOT
BRANCH   8  10
ATOM     10  C02 UNK A   1      41.360  27.336  40.870  0.00  0.00    +0.146 C 
BRANCH  10  16
ATOM     11  C16 UNK A   1      39.848  26.850  42.858  0.00  0.00    +0.005 C 
ATOM     12  C03 UNK A   1      39.445  27.071  44.187  0.00  0.00    +0.000 C 
ATOM     13  C04 UNK A   1      40.128  28.003  44.984  0.00  0.00    +0.000 C 
ATOM     14  C05 UNK A   1      41.214  28.717  44.449  0.00  0.00    +0.000 C 
ATOM     15  C06 UNK A   1      41.611  28.502  43.117  0.00  0.00    +0.005 C 
ATOM     16  C07 UNK A   1      40.935  27.563  42.316  0.00  0.00    -0.030 C 
ENDBRANCH  10  16
ENDBRANCH   8  10
TORSDOF 2
ENDMDL
MODEL 3
REMARK VINA RESULT:      -6.6     11.304     13.068
REMARK  Name = BNL
REMARK  2 active torsions:
REMARK  status: ('A' for Active; 'I' for Inactive)
REMARK    1  A    between atoms: C02_2  and  C07_18
REMARK    2  A    between atoms: C02_2  and  N01_28
REMARK                            x       y       z     vdW  Elec       q    Type
REMARK                         _______ _______ _______ _____ _____    ______ ____
ROOT
ATOM      1  C10 UNK A   1      52.660  32.703  40.042  0.00  0.00    +0.076 C 
ATOM      2  C09 UNK A   1      51.467  33.637  41.608  0.00  0.00    +0.040 C 
ATOM      3  C11 UNK A   1      50.837  34.029  42.799  0.00  0.00    +0.024 C 
ATOM      4  C12 UNK A   1      49.889  35.072  42.732  0.00  0.00    +0.002 C 
ATOM      5  C13 UNK A   1      49.591  35.699  41.500  0.00  0.00    +0.001 C 
ATOM      6  C14 UNK A   1      50.230  35.285  40.312  0.00  0.00    +0.010 C 
ATOM      7  C15 UNK A   1      51.163  34.242  40.399  0.00  0.00    -0.003 C 
ATOM      8  N01 UNK A   1      52.432  32.647  41.417  0.00  0.00    -0.302 N 
ATOM      9  C08 UNK A   1      51.912  33.651  39.408  0.00  0.00    +0.025 C 
ENDROOT
BRANCH   8  10
ATOM     10  C02 UNK A   1      53.206  31.923  42.439  0.00  0.00    +0.146 C 
BRANCH  10  16
ATOM     11  C16 UNK A   1      54.327  33.494  44.097  0.00  0.00    +0.005 C 
ATOM     12  C03 UNK A   1      55.447  34.204  44.563  0.00  0.00    +0.000 C 
ATOM     13  C04 UNK A   1      56.675  34.101  43.890  0.00  0.00    +0.000 C 
ATOM     14  C05 UNK A   1      56.781  33.288  42.749  0.00  0.00    +0.000 C 
ATOM     15  C06 UNK A   1      55.657  32.585  42.279  0.00  0.00    +0.005 C 
ATOM     16  C07 UNK A   1      54.426  32.678  42.954  0.00  0.00    -0.030 C 
ENDBRANCH  10  16
ENDBRANCH   8  10
TORSDOF 2
ENDMDL
MODEL 4
REMARK VINA RESULT:      -6.5      1.162      5.460
REMARK  Name = BNL
REMARK  2 active torsions:
REMARK  status: ('A' for Active; 'I' for Inactive)
REMARK    1  A    between atoms: C02_2  and  C07_18
REMARK    2  A    between atoms: C02_2  and  N01_28
REMARK                            x       y       z     vdW  Elec       q    Type
REMARK                         _______ _______ _______ _____ _____    ______ ____
ROOT
ATOM      1  C10 UNK A   1      43.986  24.875  41.900  0.00  0.00    +0.076 C 
ATOM      2  C09 UNK A   1      42.299  24.726  40.529  0.00  0.00    +0.040 C 
ATOM      3  C11 UNK A   1      41.129  24.899  39.774  0.00  0.00    +0.024 C 
ATOM      4  C12 UNK A   1      40.780  23.888  38.855  0.00  0.00    +0.002 C 
ATOM      5  C13 UNK A   1      41.590  22.739  38.703  0.00  0.00    +0.001 C 
ATOM      6  C14 UNK A   1      42.760  22.579  39.477  0.00  0.00    +0.010 C 
ATOM      7  C15 UNK A   1      43.085  23.592  40.389  0.00  0.00    -0.003 C 
ATOM      8  N01 UNK A   1      42.853  25.575  41.487  0.00  0.00    -0.302 N 
ATOM      9  C08 UNK A   1      44.148  23.682  41.258  0.00  0.00    +0.025 C 
ENDROOT
BRANCH   8  10
ATOM     10  C02 UNK A   1      42.487  26.971  41.784  0.00  0.00    +0.146 C 
BRANCH  10  16
ATOM     11  C16 UNK A   1      42.047  28.724  39.994  0.00  0.00    +0.005 C 
ATOM     12  C03 UNK A   1      42.493  29.643  39.028  0.00  0.00    +0.000 C 
ATOM     13  C04 UNK A   1      43.869  29.828  38.816  0.00  0.00    +0.000 C 
ATOM     14  C05 UNK A   1      44.798  29.089  39.568  0.00  0.00    +0.000 C 
ATOM     15  C06 UNK A   1      44.350  28.163  40.527  0.00  0.00    +0.005 C 
ATOM     16  C07 UNK A   1      42.973  27.980  40.751  0.00  0.00    -0.030 C 
ENDBRANCH  10  16
ENDBRANCH   8  10
TORSDOF 2
ENDMDL
MODEL 5
REMARK VINA RESULT:      -6.4      2.374      4.342
REMARK  Name = BNL
REMARK  2 active torsions:
REMARK  status: ('A' for Active; 'I' for Inactive)
REMARK    1  A    between atoms: C02_2  and  C07_18
REMARK    2  A    between atoms: C02_2  and  N01_28
REMARK                            x       y       z     vdW  Elec       q    Type
REMARK                         _______ _______ _______ _____ _____    ______ ____
ROOT
ATOM      1  C10 UNK A   1      43.192  25.765  41.845  0.00  0.00    +0.076 C 
ATOM      2  C09 UNK A   1      43.993  27.440  40.704  0.00  0.00    +0.040 C 
ATOM      3  C11 UNK A   1      44.211  28.600  39.946  0.00  0.00    +0.024 C 
ATOM      4  C12 UNK A   1      45.537  28.909  39.576  0.00  0.00    +0.002 C 
ATOM      5  C13 UNK A   1      46.608  28.070  39.964  0.00  0.00    +0.001 C 
ATOM      6  C14 UNK A   1      46.368  26.903  40.720  0.00  0.00    +0.010 C 
ATOM      7  C15 UNK A   1      45.042  26.611  41.071  0.00  0.00    -0.003 C 
ATOM      8  N01 UNK A   1      42.790  26.929  41.191  0.00  0.00    -0.302 N 
ATOM      9  C08 UNK A   1      44.538  25.550  41.787  0.00  0.00    +0.025 C 
ENDROOT
BRANCH   8  10
ATOM     10  C02 UNK A   1      41.475  27.591  41.239  0.00  0.00    +0.146 C 
BRANCH  10  16
ATOM     11  C16 UNK A   1      41.421  28.567  43.588  0.00  0.00    +0.005 C 
ATOM     12  C03 UNK A   1      40.877  28.645  44.882  0.00  0.00    +0.000 C 
ATOM     13  C04 UNK A   1      39.777  27.846  45.231  0.00  0.00    +0.000 C 
ATOM     14  C05 UNK A   1      39.223  26.966  44.285  0.00  0.00    +0.000 C 
ATOM     15  C06 UNK A   1      39.775  26.882  42.995  0.00  0.00    +0.005 C 
ATOM     16  C07 UNK A   1      40.872  27.687  42.636  0.00  0.00    -0.030 C 
ENDBRANCH  10  16
ENDBRANCH   8  10
TORSDOF 2
ENDMDL
MODEL 6
REMARK VINA RESULT:      -6.1     37.947     39.696
REMARK  Name = BNL
REMARK  2 active torsions:
REMARK  status: ('A' for Active; 'I' for Inactive)
REMARK    1  A    between atoms: C02_2  and  C07_18
REMARK    2  A    between atoms: C02_2  and  N01_28
REMARK                            x       y       z     vdW  Elec       q    Type
REMARK                         _______ _______ _______ _____ _____    ______ ____
ROOT
ATOM      1  C10 UNK A   1      31.341  51.877  70.314  0.00  0.00    +0.076 C 
ATOM      2  C09 UNK A   1      32.130  50.872  68.548  0.00  0.00    +0.040 C 
ATOM      3  C11 UNK A   1      32.700  49.997  67.612  0.00  0.00    +0.024 C 
ATOM      4  C12 UNK A   1      32.809  50.438  66.276  0.00  0.00    +0.002 C 
ATOM      5  C13 UNK A   1      32.354  51.724  65.901  0.00  0.00    +0.001 C 
ATOM      6  C14 UNK A   1      31.790  52.593  66.860  0.00  0.00    +0.010 C 
ATOM      7  C15 UNK A   1      31.697  52.137  68.182  0.00  0.00    -0.003 C 
ATOM      8  N01 UNK A   1      31.909  50.669  69.911  0.00  0.00    -0.302 N 
ATOM      9  C08 UNK A   1      31.203  52.775  69.296  0.00  0.00    +0.025 C 
ENDROOT
BRANCH   8  10
ATOM     10  C02 UNK A   1      31.999  49.409  70.668  0.00  0.00    +0.146 C 
BRANCH  10  16
ATOM     11  C16 UNK A   1      34.289  48.302  70.698  0.00  0.00    +0.005 C 
ATOM     12  C03 UNK A   1      35.536  48.057  71.300  0.00  0.00    +0.000 C 
ATOM     13  C04 UNK A   1      35.860  48.672  72.520  0.00  0.00    +0.000 C 
ATOM     14  C05 UNK A   1      34.934  49.530  73.139  0.00  0.00    +0.000 C 
ATOM     15  C06 UNK A   1      33.684  49.765  72.540  0.00  0.00    +0.005 C 
ATOM     16  C07 UNK A   1      33.357  49.159  71.313  0.00  0.00    -0.030 C 
ENDBRANCH  10  16
ENDBRANCH   8  10
TORSDOF 2
ENDMDL
MODEL 7
REMARK VINA RESULT:      -6.1     10.725     12.421
REMARK  Name = BNL
REMARK  2 active torsions:
REMARK  status: ('A' for Active; 'I' for Inactive)
REMARK    1  A    between atoms: C02_2  and  C07_18
REMARK    2  A    between atoms: C02_2  and  N01_28
REMARK                            x       y       z     vdW  Elec       q    Type
REMARK                         _______ _______ _______ _____ _____    ______ ____
ROOT
ATOM      1  C10 UNK A   1      53.687  30.934  38.838  0.00  0.00    +0.076 C 
ATOM      2  C09 UNK A   1      52.367  32.655  39.050  0.00  0.00    +0.040 C 
ATOM      3  C11 UNK A   1      51.438  33.626  39.453  0.00  0.00    +0.024 C 
ATOM      4  C12 UNK A   1      51.200  34.713  38.586  0.00  0.00    +0.002 C 
ATOM      5  C13 UNK A   1      51.883  34.814  37.351  0.00  0.00    +0.001 C 
ATOM      6  C14 UNK A   1      52.809  33.823  36.960  0.00  0.00    +0.010 C 
ATOM      7  C15 UNK A   1      53.025  32.748  37.833  0.00  0.00    -0.003 C 
ATOM      8  N01 UNK A   1      52.774  31.504  39.725  0.00  0.00    -0.302 N 
ATOM      9  C08 UNK A   1      53.855  31.660  37.695  0.00  0.00    +0.025 C 
ENDROOT
BRANCH   8  10
ATOM     10  C02 UNK A   1      52.515  31.133  41.127  0.00  0.00    +0.146 C 
BRANCH  10  16
ATOM     11  C16 UNK A   1      54.677  31.769  42.308  0.00  0.00    +0.005 C 
ATOM     12  C03 UNK A   1      55.390  32.517  43.261  0.00  0.00    +0.000 C 
ATOM     13  C04 UNK A   1      54.723  33.460  44.058  0.00  0.00    +0.000 C 
ATOM     14  C05 UNK A   1      53.339  33.653  43.903  0.00  0.00    +0.000 C 
ATOM     15  C06 UNK A   1      52.625  32.898  42.956  0.00  0.00    +0.005 C 
ATOM     16  C07 UNK A   1      53.291  31.957  42.147  0.00  0.00    -0.030 C 
ENDBRANCH  10  16
ENDBRANCH   8  10
TORSDOF 2
ENDMDL
MODEL 8
REMARK VINA RESULT:      -6.1     11.202     12.180
REMARK  Name = BNL
REMARK  2 active torsions:
REMARK  status: ('A' for Active; 'I' for Inactive)
REMARK    1  A    between atoms: C02_2  and  C07_18
REMARK    2  A    between atoms: C02_2  and  N01_28
REMARK                            x       y       z     vdW  Elec       q    Type
REMARK                         _______ _______ _______ _____ _____    ______ ____
ROOT
ATOM      1  C10 UNK A   1      52.859  32.775  40.221  0.00  0.00    +0.076 C 
ATOM      2  C09 UNK A   1      51.346  33.866  41.348  0.00  0.00    +0.040 C 
ATOM      3  C11 UNK A   1      50.493  34.418  42.316  0.00  0.00    +0.024 C 
ATOM      4  C12 UNK A   1      49.490  35.309  41.881  0.00  0.00    +0.002 C 
ATOM      5  C13 UNK A   1      49.355  35.632  40.511  0.00  0.00    +0.001 C 
ATOM      6  C14 UNK A   1      50.218  35.060  39.551  0.00  0.00    +0.010 C 
ATOM      7  C15 UNK A   1      51.203  34.172  40.004  0.00  0.00    -0.003 C 
ATOM      8  N01 UNK A   1      52.405  32.976  41.525  0.00  0.00    -0.302 N 
ATOM      9  C08 UNK A   1      52.154  33.480  39.290  0.00  0.00    +0.025 C 
ENDROOT
BRANCH   8  10
ATOM     10  C02 UNK A   1      53.051  32.570  42.785  0.00  0.00    +0.146 C 
BRANCH  10  16
ATOM     11  C16 UNK A   1      53.955  30.204  42.548  0.00  0.00    +0.005 C 
ATOM     12  C03 UNK A   1      55.019  29.296  42.405  0.00  0.00    +0.000 C 
ATOM     13  C04 UNK A   1      56.339  29.767  42.321  0.00  0.00    +0.000 C 
ATOM     14  C05 UNK A   1      56.594  31.148  42.384  0.00  0.00    +0.000 C 
ATOM     15  C06 UNK A   1      55.530  32.054  42.536  0.00  0.00    +0.005 C 
ATOM     16  C07 UNK A   1      54.204  31.589  42.611  0.00  0.00    -0.030 C 
ENDBRANCH  10  16
ENDBRANCH   8  10
TORSDOF 2
ENDMDL
MODEL 9
REMARK VINA RESULT:      -5.8      2.970      5.779
REMARK  Name = BNL
REMARK  2 active torsions:
REMARK  status: ('A' for Active; 'I' for Inactive)
REMARK    1  A    between atoms: C02_2  and  C07_18
REMARK    2  A    between atoms: C02_2  and  N01_28
REMARK                            x       y       z     vdW  Elec       q    Type
REMARK                         _______ _______ _______ _____ _____    ______ ____
ROOT
ATOM      1  C10 UNK A   1      43.341  25.011  44.365  0.00  0.00    +0.076 C 
ATOM      2  C09 UNK A   1      42.227  26.875  44.186  0.00  0.00    +0.040 C 
ATOM      3  C11 UNK A   1      41.589  28.054  43.772  0.00  0.00    +0.024 C 
ATOM      4  C12 UNK A   1      40.943  28.835  44.753  0.00  0.00    +0.002 C 
ATOM      5  C13 UNK A   1      40.942  28.435  46.110  0.00  0.00    +0.001 C 
ATOM      6  C14 UNK A   1      41.597  27.250  46.508  0.00  0.00    +0.010 C 
ATOM      7  C15 UNK A   1      42.238  26.492  45.518  0.00  0.00    -0.003 C 
ATOM      8  N01 UNK A   1      42.921  25.942  43.416  0.00  0.00    -0.302 N 
ATOM      9  C08 UNK A   1      42.945  25.317  45.634  0.00  0.00    +0.025 C 
ENDROOT
BRANCH   8  10
ATOM     10  C02 UNK A   1      42.963  25.826  41.948  0.00  0.00    +0.146 C 
BRANCH  10  16
ATOM     11  C16 UNK A   1      43.734  27.884  40.666  0.00  0.00    +0.005 C 
ATOM     12  C03 UNK A   1      44.736  28.645  40.038  0.00  0.00    +0.000 C 
ATOM     13  C04 UNK A   1      46.064  28.189  40.027  0.00  0.00    +0.000 C 
ATOM     14  C05 UNK A   1      46.388  26.969  40.644  0.00  0.00    +0.000 C 
ATOM     15  C06 UNK A   1      45.385  26.204  41.263  0.00  0.00    +0.005 C 
ATOM     16  C07 UNK A   1      44.053  26.660  41.284  0.00  0.00    -0.030 C 
ENDBRANCH  10  16
ENDBRANCH   8  10
TORSDOF 2
ENDMDL
