MODEL 1
REMARK VINA RESULT:      -6.6      0.000      0.000
REMARK  Name = BNL
REMARK  0 active torsions:
REMARK  status: ('A' for Active; 'I' for Inactive)
REMARK                            x       y       z     vdW  Elec       q    Type
REMARK                         _______ _______ _______ _____ _____    ______ ____
ROOT
ATOM      1  C01 UNK A   1      43.745  29.803  39.158  0.00  0.00    +0.012 C 
ATOM      2  O01 UNK A   1      42.944  27.969  41.089  0.00  0.00    -0.312 OA
ATOM      3  C02 UNK A   1      42.443  29.491  39.300  0.00  0.00    +0.035 C 
ATOM      4  O02 UNK A   1      40.700  28.397  40.512  0.00  0.00    -0.364 OA
ATOM      5  C09 UNK A   1      44.285  28.007  40.770  0.00  0.00    +0.086 C 
ATOM      6  C10 UNK A   1      42.022  28.226  40.009  0.00  0.00    +0.180 C 
ATOM      7  C11 UNK A   1      45.175  27.124  41.398  0.00  0.00    +0.034 C 
ATOM      8  C12 UNK A   1      46.489  26.989  40.905  0.00  0.00    +0.002 C 
ATOM      9  C13 UNK A   1      46.918  27.755  39.789  0.00  0.00    +0.000 C 
ATOM     10  C14 UNK A   1      46.045  28.711  39.227  0.00  0.00    +0.011 C 
ATOM     11  C15 UNK A   1      44.737  28.855  39.733  0.00  0.00    +0.005 C 
ENDROOT
TORSDOF 0
ENDMDL
MODEL 2
REMARK VINA RESULT:      -6.5      8.819      9.851
REMARK  Name = BNL
REMARK  0 active torsions:
REMARK  status: ('A' for Active; 'I' for Inactive)
REMARK                            x       y       z     vdW  Elec       q    Type
REMARK                         _______ _______ _______ _____ _____    ______ ____
ROOT
ATOM      1  C01 UNK A   1      51.322  33.636  42.998  0.00  0.00    +0.012 C 
ATOM      2  O01 UNK A   1      51.668  34.306  40.321  0.00  0.00    -0.312 OA
ATOM      3  C02 UNK A   1      52.256  33.011  42.256  0.00  0.00    +0.035 C 
ATOM      4  O02 UNK A   1      53.496  32.823  40.224  0.00  0.00    -0.364 OA
ATOM      5  C09 UNK A   1      50.509  34.730  40.935  0.00  0.00    +0.086 C 
ATOM      6  C10 UNK A   1      52.187  33.029  40.748  0.00  0.00    +0.180 C 
ATOM      7  C11 UNK A   1      49.554  35.448  40.200  0.00  0.00    +0.034 C 
ATOM      8  C12 UNK A   1      48.273  35.669  40.747  0.00  0.00    +0.002 C 
ATOM      9  C13 UNK A   1      47.953  35.183  42.041  0.00  0.00    +0.000 C 
ATOM     10  C14 UNK A   1      48.952  34.547  42.811  0.00  0.00    +0.011 C 
ATOM     11  C15 UNK A   1      50.237  34.344  42.268  0.00  0.00    +0.005 C 
ENDROOT
TORSDOF 0
ENDMDL
MODEL 3
REMARK VINA RESULT:      -6.2      2.076      4.433
REMARK  Name = BNL
REMARK  0 active torsions:
REMARK  status: ('A' for Active; 'I' for Inactive)
REMARK                            x       y       z     vdW  Elec       q    Type
REMARK                         _______ _______ _______ _____ _____    ______ ____
ROOT
ATOM      1  C01 UNK A   1      45.401  27.377  41.399  0.00  0.00    +0.012 C 
ATOM      2  O01 UNK A   1      46.024  29.027  39.248  0.00  0.00    -0.312 OA
ATOM      3  C02 UNK A   1      46.587  27.259  40.772  0.00  0.00    +0.035 C 
ATOM      4  O02 UNK A   1      48.174  28.066  39.180  0.00  0.00    -0.364 OA
ATOM      5  C09 UNK A   1      44.703  28.966  39.637  0.00  0.00    +0.086 C 
ATOM      6  C10 UNK A   1      46.787  27.809  39.381  0.00  0.00    +0.180 C 
ATOM      7  C11 UNK A   1      43.736  29.701  38.936  0.00  0.00    +0.034 C 
ATOM      8  C12 UNK A   1      42.367  29.455  39.169  0.00  0.00    +0.002 C 
ATOM      9  C13 UNK A   1      41.966  28.481  40.120  0.00  0.00    +0.000 C 
ATOM     10  C14 UNK A   1      42.945  27.816  40.888  0.00  0.00    +0.011 C 
ATOM     11  C15 UNK A   1      44.313  28.077  40.665  0.00  0.00    +0.005 C 
ENDROOT
TORSDOF 0
ENDMDL
MODEL 4
REMARK VINA RESULT:      -5.8      1.502      2.764
REMARK  Name = BNL
REMARK  0 active torsions:
REMARK  status: ('A' for Active; 'I' for Inactive)
REMARK                            x       y       z     vdW  Elec       q    Type
REMARK                         _______ _______ _______ _____ _____    ______ ____
ROOT
ATOM      1  C01 UNK A   1      44.301  26.640  42.649  0.00  0.00    +0.012 C 
ATOM      2  O01 UNK A   1      42.799  28.558  41.307  0.00  0.00    -0.312 OA
ATOM      3  C02 UNK A   1      43.241  27.215  43.248  0.00  0.00    +0.035 C 
ATOM      4  O02 UNK A   1      41.316  28.624  43.136  0.00  0.00    -0.364 OA
ATOM      5  C09 UNK A   1      44.038  28.246  40.788  0.00  0.00    +0.086 C 
ATOM      6  C10 UNK A   1      42.682  28.524  42.745  0.00  0.00    +0.180 C 
ATOM      7  C11 UNK A   1      44.499  28.908  39.640  0.00  0.00    +0.034 C 
ATOM      8  C12 UNK A   1      45.847  28.775  39.251  0.00  0.00    +0.002 C 
ATOM      9  C13 UNK A   1      46.733  27.961  40.004  0.00  0.00    +0.000 C 
ATOM     10  C14 UNK A   1      46.236  27.223  41.100  0.00  0.00    +0.011 C 
ATOM     11  C15 UNK A   1      44.883  27.345  41.476  0.00  0.00    +0.005 C 
ENDROOT
TORSDOF 0
ENDMDL
MODEL 5
REMARK VINA RESULT:      -5.7      1.583      2.101
REMARK  Name = BNL
REMARK  0 active torsions:
REMARK  status: ('A' for Active; 'I' for Inactive)
REMARK                            x       y       z     vdW  Elec       q    Type
REMARK                         _______ _______ _______ _____ _____    ______ ____
ROOT
ATOM      1  C01 UNK A   1      42.711  28.331  40.733  0.00  0.00    +0.012 C 
ATOM      2  O01 UNK A   1      43.915  26.058  41.790  0.00  0.00    -0.312 OA
ATOM      3  C02 UNK A   1      41.963  27.274  41.100  0.00  0.00    +0.035 C 
ATOM      4  O02 UNK A   1      41.776  25.140  42.155  0.00  0.00    -0.364 OA
ATOM      5  C09 UNK A   1      44.729  26.962  41.140  0.00  0.00    +0.086 C 
ATOM      6  C10 UNK A   1      42.581  25.906  41.263  0.00  0.00    +0.180 C 
ATOM      7  C11 UNK A   1      46.101  26.698  41.016  0.00  0.00    +0.034 C 
ATOM      8  C12 UNK A   1      46.888  27.486  40.151  0.00  0.00    +0.002 C 
ATOM      9  C13 UNK A   1      46.301  28.552  39.420  0.00  0.00    +0.000 C 
ATOM     10  C14 UNK A   1      44.941  28.869  39.627  0.00  0.00    +0.011 C 
ATOM     11  C15 UNK A   1      44.161  28.090  40.506  0.00  0.00    +0.005 C 
ENDROOT
TORSDOF 0
ENDMDL
MODEL 6
REMARK VINA RESULT:      -5.6      9.588     10.556
REMARK  Name = BNL
REMARK  0 active torsions:
REMARK  status: ('A' for Active; 'I' for Inactive)
REMARK                            x       y       z     vdW  Elec       q    Type
REMARK                         _______ _______ _______ _____ _____    ______ ____
ROOT
ATOM      1  C01 UNK A   1      53.037  32.391  41.517  0.00  0.00    +0.012 C 
ATOM      2  O01 UNK A   1      52.195  33.519  43.916  0.00  0.00    -0.312 OA
ATOM      3  C02 UNK A   1      53.823  32.333  42.608  0.00  0.00    +0.035 C 
ATOM      4  O02 UNK A   1      54.138  32.679  44.951  0.00  0.00    -0.364 OA
ATOM      5  C09 UNK A   1      51.516  33.882  42.772  0.00  0.00    +0.086 C 
ATOM      6  C10 UNK A   1      53.609  33.275  43.769  0.00  0.00    +0.180 C 
ATOM      7  C11 UNK A   1      50.463  34.806  42.851  0.00  0.00    +0.034 C 
ATOM      8  C12 UNK A   1      49.932  35.363  41.670  0.00  0.00    +0.002 C 
ATOM      9  C13 UNK A   1      50.447  34.981  40.404  0.00  0.00    +0.000 C 
ATOM     10  C14 UNK A   1      51.439  33.980  40.331  0.00  0.00    +0.011 C 
ATOM     11  C15 UNK A   1      51.956  33.412  41.513  0.00  0.00    +0.005 C 
ENDROOT
TORSDOF 0
ENDMDL
MODEL 7
REMARK VINA RESULT:      -5.6     11.357     13.099
REMARK  Name = BNL
REMARK  0 active torsions:
REMARK  status: ('A' for Active; 'I' for Inactive)
REMARK                            x       y       z     vdW  Elec       q    Type
REMARK                         _______ _______ _______ _____ _____    ______ ____
ROOT
ATOM      1  C01 UNK A   1      34.542  33.215  38.329  0.00  0.00    +0.012 C 
ATOM      2  O01 UNK A   1      32.168  32.612  37.012  0.00  0.00    -0.312 OA
ATOM      3  C02 UNK A   1      33.802  32.157  38.712  0.00  0.00    +0.035 C 
ATOM      4  O02 UNK A   1      31.963  30.679  38.343  0.00  0.00    -0.364 OA
ATOM      5  C09 UNK A   1      32.709  33.863  36.802  0.00  0.00    +0.086 C 
ATOM      6  C10 UNK A   1      32.345  32.052  38.330  0.00  0.00    +0.180 C 
ATOM      7  C11 UNK A   1      32.045  34.777  35.971  0.00  0.00    +0.034 C 
ATOM      8  C12 UNK A   1      32.457  36.126  35.947  0.00  0.00    +0.002 C 
ATOM      9  C13 UNK A   1      33.547  36.556  36.748  0.00  0.00    +0.000 C 
ATOM     10  C14 UNK A   1      34.267  35.609  37.507  0.00  0.00    +0.011 C 
ATOM     11  C15 UNK A   1      33.864  34.258  37.514  0.00  0.00    +0.005 C 
ENDROOT
TORSDOF 0
ENDMDL
MODEL 8
REMARK VINA RESULT:      -5.4     31.390     31.911
REMARK  Name = BNL
REMARK  0 active torsions:
REMARK  status: ('A' for Active; 'I' for Inactive)
REMARK                            x       y       z     vdW  Elec       q    Type
REMARK                         _______ _______ _______ _____ _____    ______ ____
ROOT
ATOM      1  C01 UNK A   1      57.837  46.019  60.647  0.00  0.00    +0.012 C 
ATOM      2  O01 UNK A   1      56.658  47.718  62.507  0.00  0.00    -0.312 OA
ATOM      3  C02 UNK A   1      57.424  45.543  61.837  0.00  0.00    +0.035 C 
ATOM      4  O02 UNK A   1      56.266  45.860  63.901  0.00  0.00    -0.364 OA
ATOM      5  C09 UNK A   1      57.345  48.300  61.462  0.00  0.00    +0.086 C 
ATOM      6  C10 UNK A   1      57.189  46.471  63.004  0.00  0.00    +0.180 C 
ATOM      7  C11 UNK A   1      57.444  49.698  61.388  0.00  0.00    +0.034 C 
ATOM      8  C12 UNK A   1      58.340  50.286  60.472  0.00  0.00    +0.002 C 
ATOM      9  C13 UNK A   1      59.128  49.472  59.617  0.00  0.00    +0.000 C 
ATOM     10  C14 UNK A   1      58.949  48.072  59.633  0.00  0.00    +0.011 C 
ATOM     11  C15 UNK A   1      58.039  47.488  60.537  0.00  0.00    +0.005 C 
ENDROOT
TORSDOF 0
ENDMDL
MODEL 9
REMARK VINA RESULT:      -5.4     19.563     21.172
REMARK  Name = BNL
REMARK  0 active torsions:
REMARK  status: ('A' for Active; 'I' for Inactive)
REMARK                            x       y       z     vdW  Elec       q    Type
REMARK                         _______ _______ _______ _____ _____    ______ ____
ROOT
ATOM      1  C01 UNK A   1      33.542  44.537  38.838  0.00  0.00    +0.012 C 
ATOM      2  O01 UNK A   1      34.019  46.119  36.601  0.00  0.00    -0.312 OA
ATOM      3  C02 UNK A   1      33.276  44.068  37.605  0.00  0.00    +0.035 C 
ATOM      4  O02 UNK A   1      33.400  44.305  35.231  0.00  0.00    -0.364 OA
ATOM      5  C09 UNK A   1      33.999  46.747  37.828  0.00  0.00    +0.086 C 
ATOM      6  C10 UNK A   1      33.112  45.009  36.436  0.00  0.00    +0.180 C 
ATOM      7  C11 UNK A   1      34.191  48.134  37.903  0.00  0.00    +0.034 C 
ATOM      8  C12 UNK A   1      33.929  48.811  39.112  0.00  0.00    +0.002 C 
ATOM      9  C13 UNK A   1      33.490  48.093  40.255  0.00  0.00    +0.000 C 
ATOM     10  C14 UNK A   1      33.394  46.686  40.196  0.00  0.00    +0.011 C 
ATOM     11  C15 UNK A   1      33.673  46.010  38.990  0.00  0.00    +0.005 C 
ENDROOT
TORSDOF 0
ENDMDL
