MODEL 1
REMARK VINA RESULT:      -7.6      0.000      0.000
REMARK  Name = QAP
REMARK  2 active torsions:
REMARK  status: ('A' for Active; 'I' for Inactive)
REMARK    1  A    between atoms: C6_3  and  C02_13
REMARK    2  A    between atoms: C01_12  and  C02_13
REMARK                            x       y       z     vdW  Elec       q    Type
REMARK                         _______ _______ _______ _____ _____    ______ ____
ROOT
ATOM      1  C02 QAP A   1      50.952  35.631  39.348  0.00  0.00    +0.071 C 
ENDROOT
BRANCH   1   7
ATOM      2  C4  QAP A   1      48.707  35.622  40.503  0.00  0.00    +0.004 A 
ATOM      3  C5  QAP A   1      50.604  34.715  41.718  0.00  0.00    +0.004 A 
ATOM      4  C7  QAP A   1      47.851  35.303  41.571  0.00  0.00    +0.000 A 
ATOM      5  C8  QAP A   1      49.765  34.395  42.798  0.00  0.00    +0.000 A 
ATOM      6  C9  QAP A   1      48.384  34.682  42.716  0.00  0.00    +0.000 A 
ATOM      7  C01 QAP A   1      50.080  35.325  40.561  0.00  0.00    -0.044 A 
ENDBRANCH   1   7
BRANCH   1   8
ATOM      8  C6  QAP A   1      51.352  34.549  38.346  0.00  0.00    -0.044 A 
ATOM      9  C10 QAP A   1      51.776  34.930  37.059  0.00  0.00    +0.004 A 
ATOM     10  C11 QAP A   1      51.732  33.289  38.846  0.00  0.00    +0.004 A 
ATOM     11  C13 QAP A   1      52.770  34.180  36.395  0.00  0.00    +0.000 A 
ATOM     12  C15 QAP A   1      53.254  32.999  36.980  0.00  0.00    +0.000 A 
ATOM     13  C16 QAP A   1      52.697  32.520  38.176  0.00  0.00    +0.000 A 
ENDBRANCH   1   8
TORSDOF 2
ENDMDL
MODEL 2
REMARK VINA RESULT:      -7.4      2.932      5.528
REMARK  Name = QAP
REMARK  2 active torsions:
REMARK  status: ('A' for Active; 'I' for Inactive)
REMARK    1  A    between atoms: C6_3  and  C02_13
REMARK    2  A    between atoms: C01_12  and  C02_13
REMARK                            x       y       z     vdW  Elec       q    Type
REMARK                         _______ _______ _______ _____ _____    ______ ____
ROOT
ATOM      1  C02 QAP A   1      51.400  34.454  43.227  0.00  0.00    +0.071 C 
ENDROOT
BRANCH   1   7
ATOM      2  C4  QAP A   1      52.307  32.292  42.291  0.00  0.00    +0.004 A 
ATOM      3  C5  QAP A   1      53.570  33.372  44.062  0.00  0.00    +0.004 A 
ATOM      4  C7  QAP A   1      53.276  31.280  42.197  0.00  0.00    +0.000 A 
ATOM      5  C8  QAP A   1      54.547  32.366  43.986  0.00  0.00    +0.000 A 
ATOM      6  C9  QAP A   1      54.401  31.324  43.043  0.00  0.00    +0.000 A 
ATOM      7  C01 QAP A   1      52.447  33.346  43.212  0.00  0.00    -0.044 A 
ENDBRANCH   1   7
BRANCH   1   8
ATOM      8  C6  QAP A   1      50.222  34.468  42.254  0.00  0.00    -0.044 A 
ATOM      9  C10 QAP A   1      48.911  34.404  42.764  0.00  0.00    +0.004 A 
ATOM     10  C11 QAP A   1      50.430  35.001  40.968  0.00  0.00    +0.004 A 
ATOM     11  C13 QAP A   1      47.868  35.094  42.111  0.00  0.00    +0.000 A 
ATOM     12  C15 QAP A   1      48.126  35.755  40.898  0.00  0.00    +0.000 A 
ATOM     13  C16 QAP A   1      49.389  35.662  40.296  0.00  0.00    +0.000 A 
ENDBRANCH   1   8
TORSDOF 2
ENDMDL
MODEL 3
REMARK VINA RESULT:      -7.3      1.373      5.601
REMARK  Name = QAP
REMARK  2 active torsions:
REMARK  status: ('A' for Active; 'I' for Inactive)
REMARK    1  A    between atoms: C6_3  and  C02_13
REMARK    2  A    between atoms: C01_12  and  C02_13
REMARK                            x       y       z     vdW  Elec       q    Type
REMARK                         _______ _______ _______ _____ _____    ______ ____
ROOT
ATOM      1  C02 QAP A   1      50.625  34.725  42.471  0.00  0.00    +0.071 C 
ENDROOT
BRANCH   1   7
ATOM      2  C4  QAP A   1      51.993  33.231  40.964  0.00  0.00    +0.004 A 
ATOM      3  C5  QAP A   1      50.598  34.920  39.914  0.00  0.00    +0.004 A 
ATOM      4  C7  QAP A   1      52.401  32.764  39.704  0.00  0.00    +0.000 A 
ATOM      5  C8  QAP A   1      51.000  34.470  38.646  0.00  0.00    +0.000 A 
ATOM      6  C9  QAP A   1      51.896  33.382  38.545  0.00  0.00    +0.000 A 
ATOM      7  C01 QAP A   1      51.087  34.300  41.082  0.00  0.00    -0.044 A 
ENDBRANCH   1   7
BRANCH   1   8
ATOM      8  C6  QAP A   1      49.265  35.382  42.706  0.00  0.00    -0.044 A 
ATOM      9  C10 QAP A   1      49.188  36.785  42.793  0.00  0.00    +0.004 A 
ATOM     10  C11 QAP A   1      48.110  34.653  42.368  0.00  0.00    +0.004 A 
ATOM     11  C13 QAP A   1      48.050  37.458  42.301  0.00  0.00    +0.000 A 
ATOM     12  C15 QAP A   1      46.958  36.717  41.822  0.00  0.00    +0.000 A 
ATOM     13  C16 QAP A   1      46.960  35.316  41.907  0.00  0.00    +0.000 A 
ENDBRANCH   1   8
TORSDOF 2
ENDMDL
MODEL 4
REMARK VINA RESULT:      -7.3      2.903      4.373
REMARK  Name = QAP
REMARK  2 active torsions:
REMARK  status: ('A' for Active; 'I' for Inactive)
REMARK    1  A    between atoms: C6_3  and  C02_13
REMARK    2  A    between atoms: C01_12  and  C02_13
REMARK                            x       y       z     vdW  Elec       q    Type
REMARK                         _______ _______ _______ _____ _____    ______ ____
ROOT
ATOM      1  C02 QAP A   1      51.216  33.807  43.361  0.00  0.00    +0.071 C 
ENDROOT
BRANCH   1   7
ATOM      2  C4  QAP A   1      48.867  34.505  42.753  0.00  0.00    +0.004 A 
ATOM      3  C5  QAP A   1      50.635  34.981  41.157  0.00  0.00    +0.004 A 
ATOM      4  C7  QAP A   1      47.925  35.127  41.918  0.00  0.00    +0.000 A 
ATOM      5  C8  QAP A   1      49.705  35.601  40.306  0.00  0.00    +0.000 A 
ATOM      6  C9  QAP A   1      48.350  35.681  40.695  0.00  0.00    +0.000 A 
ATOM      7  C01 QAP A   1      50.223  34.434  42.388  0.00  0.00    -0.044 A 
ENDBRANCH   1   7
BRANCH   1   8
ATOM      8  C6  QAP A   1      52.477  33.091  42.881  0.00  0.00    -0.044 A 
ATOM      9  C10 QAP A   1      53.661  33.207  43.635  0.00  0.00    +0.004 A 
ATOM     10  C11 QAP A   1      52.328  31.997  42.008  0.00  0.00    +0.004 A 
ATOM     11  C13 QAP A   1      54.557  32.120  43.708  0.00  0.00    +0.000 A 
ATOM     12  C15 QAP A   1      54.314  30.966  42.945  0.00  0.00    +0.000 A 
ATOM     13  C16 QAP A   1      53.233  30.924  42.051  0.00  0.00    +0.000 A 
ENDBRANCH   1   8
TORSDOF 2
ENDMDL
MODEL 5
REMARK VINA RESULT:      -7.1      2.781      5.495
REMARK  Name = QAP
REMARK  2 active torsions:
REMARK  status: ('A' for Active; 'I' for Inactive)
REMARK    1  A    between atoms: C6_3  and  C02_13
REMARK    2  A    between atoms: C01_12  and  C02_13
REMARK                            x       y       z     vdW  Elec       q    Type
REMARK                         _______ _______ _______ _____ _____    ______ ____
ROOT
ATOM      1  C02 QAP A   1      50.807  33.384  43.258  0.00  0.00    +0.071 C 
ENDROOT
BRANCH   1   7
ATOM      2  C4  QAP A   1      53.262  33.501  43.831  0.00  0.00    +0.004 A 
ATOM      3  C5  QAP A   1      52.623  32.230  41.863  0.00  0.00    +0.004 A 
ATOM      4  C7  QAP A   1      54.610  33.157  43.634  0.00  0.00    +0.000 A 
ATOM      5  C8  QAP A   1      53.966  31.881  41.646  0.00  0.00    +0.000 A 
ATOM      6  C9  QAP A   1      54.958  32.340  42.542  0.00  0.00    +0.000 A 
ATOM      7  C01 QAP A   1      52.261  33.037  42.960  0.00  0.00    -0.044 A 
ENDBRANCH   1   7
BRANCH   1   8
ATOM      8  C6  QAP A   1      50.090  34.536  42.554  0.00  0.00    -0.044 A 
ATOM      9  C10 QAP A   1      50.605  35.023  41.338  0.00  0.00    +0.004 A 
ATOM     10  C11 QAP A   1      48.735  34.760  42.861  0.00  0.00    +0.004 A 
ATOM     11  C13 QAP A   1      49.726  35.493  40.340  0.00  0.00    +0.000 A 
ATOM     12  C15 QAP A   1      48.349  35.568  40.607  0.00  0.00    +0.000 A 
ATOM     13  C16 QAP A   1      47.857  35.257  41.884  0.00  0.00    +0.000 A 
ENDBRANCH   1   8
TORSDOF 2
ENDMDL
MODEL 6
REMARK VINA RESULT:      -7.0      0.633      5.597
REMARK  Name = QAP
REMARK  2 active torsions:
REMARK  status: ('A' for Active; 'I' for Inactive)
REMARK    1  A    between atoms: C6_3  and  C02_13
REMARK    2  A    between atoms: C01_12  and  C02_13
REMARK                            x       y       z     vdW  Elec       q    Type
REMARK                         _______ _______ _______ _____ _____    ______ ____
ROOT
ATOM      1  C02 QAP A   1      50.753  35.612  39.465  0.00  0.00    +0.071 C 
ENDROOT
BRANCH   1   7
ATOM      2  C4  QAP A   1      51.975  33.404  39.383  0.00  0.00    +0.004 A 
ATOM      3  C5  QAP A   1      51.981  34.771  37.376  0.00  0.00    +0.004 A 
ATOM      4  C7  QAP A   1      52.703  32.402  38.721  0.00  0.00    +0.000 A 
ATOM      5  C8  QAP A   1      52.715  33.784  36.700  0.00  0.00    +0.000 A 
ATOM      6  C9  QAP A   1      53.067  32.593  37.374  0.00  0.00    +0.000 A 
ATOM      7  C01 QAP A   1      51.601  34.586  38.721  0.00  0.00    -0.044 A 
ENDBRANCH   1   7
BRANCH   1   8
ATOM      8  C6  QAP A   1      49.853  35.220  40.635  0.00  0.00    -0.044 A 
ATOM      9  C10 QAP A   1      50.392  35.192  41.936  0.00  0.00    +0.004 A 
ATOM     10  C11 QAP A   1      48.461  35.354  40.476  0.00  0.00    +0.004 A 
ATOM     11  C13 QAP A   1      49.588  35.552  43.038  0.00  0.00    +0.000 A 
ATOM     12  C15 QAP A   1      48.226  35.834  42.842  0.00  0.00    +0.000 A 
ATOM     13  C16 QAP A   1      47.647  35.680  41.573  0.00  0.00    +0.000 A 
ENDBRANCH   1   8
TORSDOF 2
ENDMDL
MODEL 7
REMARK VINA RESULT:      -7.0      1.465      3.144
REMARK  Name = QAP
REMARK  2 active torsions:
REMARK  status: ('A' for Active; 'I' for Inactive)
REMARK    1  A    between atoms: C6_3  and  C02_13
REMARK    2  A    between atoms: C01_12  and  C02_13
REMARK                            x       y       z     vdW  Elec       q    Type
REMARK                         _______ _______ _______ _____ _____    ______ ____
ROOT
ATOM      1  C02 QAP A   1      49.853  34.834  42.320  0.00  0.00    +0.071 C 
ENDROOT
BRANCH   1   7
ATOM      2  C4  QAP A   1      48.591  37.019  42.395  0.00  0.00    +0.004 A 
ATOM      3  C5  QAP A   1      47.332  35.006  41.882  0.00  0.00    +0.004 A 
ATOM      4  C7  QAP A   1      47.433  37.799  42.244  0.00  0.00    +0.000 A 
ATOM      5  C8  QAP A   1      46.163  35.769  41.732  0.00  0.00    +0.000 A 
ATOM      6  C9  QAP A   1      46.220  37.170  41.904  0.00  0.00    +0.000 A 
ATOM      7  C01 QAP A   1      48.555  35.626  42.209  0.00  0.00    -0.044 A 
ENDBRANCH   1   7
BRANCH   1   8
ATOM      8  C6  QAP A   1      50.817  34.692  41.143  0.00  0.00    -0.044 A 
ATOM      9  C10 QAP A   1      51.741  33.629  41.138  0.00  0.00    +0.004 A 
ATOM     10  C11 QAP A   1      50.469  35.301  39.923  0.00  0.00    +0.004 A 
ATOM     11  C13 QAP A   1      52.106  33.021  39.919  0.00  0.00    +0.000 A 
ATOM     12  C15 QAP A   1      51.626  33.548  38.709  0.00  0.00    +0.000 A 
ATOM     13  C16 QAP A   1      50.855  34.721  38.703  0.00  0.00    +0.000 A 
ENDBRANCH   1   8
TORSDOF 2
ENDMDL
MODEL 8
REMARK VINA RESULT:      -7.0     15.301     16.603
REMARK  Name = QAP
REMARK  2 active torsions:
REMARK  status: ('A' for Active; 'I' for Inactive)
REMARK    1  A    between atoms: C6_3  and  C02_13
REMARK    2  A    between atoms: C01_12  and  C02_13
REMARK                            x       y       z     vdW  Elec       q    Type
REMARK                         _______ _______ _______ _____ _____    ______ ____
ROOT
ATOM      1  C02 QAP A   1      44.801  48.762  48.494  0.00  0.00    +0.071 C 
ENDROOT
BRANCH   1   7
ATOM      2  C4  QAP A   1      45.583  47.110  50.236  0.00  0.00    +0.004 A 
ATOM      3  C5  QAP A   1      43.724  46.457  48.816  0.00  0.00    +0.004 A 
ATOM      4  C7  QAP A   1      45.490  45.897  50.939  0.00  0.00    +0.000 A 
ATOM      5  C8  QAP A   1      43.621  45.237  49.503  0.00  0.00    +0.000 A 
ATOM      6  C9  QAP A   1      44.502  44.964  50.573  0.00  0.00    +0.000 A 
ATOM      7  C01 QAP A   1      44.702  47.404  49.180  0.00  0.00    -0.044 A 
ENDBRANCH   1   7
BRANCH   1   8
ATOM      8  C6  QAP A   1      45.263  48.904  47.045  0.00  0.00    -0.044 A 
ATOM      9  C10 QAP A   1      46.363  49.734  46.754  0.00  0.00    +0.004 A 
ATOM     10  C11 QAP A   1      44.913  47.889  46.134  0.00  0.00    +0.004 A 
ATOM     11  C13 QAP A   1      47.247  49.390  45.709  0.00  0.00    +0.000 A 
ATOM     12  C15 QAP A   1      46.965  48.277  44.899  0.00  0.00    +0.000 A 
ATOM     13  C16 QAP A   1      45.771  47.560  45.072  0.00  0.00    +0.000 A 
ENDBRANCH   1   8
TORSDOF 2
ENDMDL
MODEL 9
REMARK VINA RESULT:      -6.8     14.006     15.832
REMARK  Name = QAP
REMARK  2 active torsions:
REMARK  status: ('A' for Active; 'I' for Inactive)
REMARK    1  A    between atoms: C6_3  and  C02_13
REMARK    2  A    between atoms: C01_12  and  C02_13
REMARK                            x       y       z     vdW  Elec       q    Type
REMARK                         _______ _______ _______ _____ _____    ______ ____
ROOT
ATOM      1  C02 QAP A   1      44.982  48.343  46.597  0.00  0.00    +0.071 C 
ENDROOT
BRANCH   1   7
ATOM      2  C4  QAP A   1      43.758  46.654  48.019  0.00  0.00    +0.004 A 
ATOM      3  C5  QAP A   1      45.590  47.874  49.044  0.00  0.00    +0.004 A 
ATOM      4  C7  QAP A   1      43.564  45.921  49.201  0.00  0.00    +0.000 A 
ATOM      5  C8  QAP A   1      45.407  47.156  50.237  0.00  0.00    +0.000 A 
ATOM      6  C9  QAP A   1      44.397  46.171  50.308  0.00  0.00    +0.000 A 
ATOM      7  C01 QAP A   1      44.771  47.624  47.925  0.00  0.00    -0.044 A 
ENDBRANCH   1   7
BRANCH   1   8
ATOM      8  C6  QAP A   1      46.128  47.980  45.654  0.00  0.00    -0.044 A 
ATOM      9  C10 QAP A   1      45.970  46.896  44.770  0.00  0.00    +0.004 A 
ATOM     10  C11 QAP A   1      47.082  48.971  45.357  0.00  0.00    +0.004 A 
ATOM     11  C13 QAP A   1      46.567  46.938  43.492  0.00  0.00    +0.000 A 
ATOM     12  C15 QAP A   1      47.400  48.016  43.150  0.00  0.00    +0.000 A 
ATOM     13  C16 QAP A   1      47.706  49.003  44.099  0.00  0.00    +0.000 A 
ENDBRANCH   1   8
TORSDOF 2
ENDMDL
