MODEL 1
REMARK VINA RESULT:      -5.9      0.000      0.000
REMARK  Name = BNL
REMARK  0 active torsions:
REMARK  status: ('A' for Active; 'I' for Inactive)
REMARK                            x       y       z     vdW  Elec       q    Type
REMARK                         _______ _______ _______ _____ _____    ______ ____
ROOT
ATOM      1  N01 UNK A   1      44.778  26.772  41.359  0.00  0.00    -0.256 NA
ATOM      2  C02 UNK A   1      46.105  26.661  41.135  0.00  0.00    +0.112 C 
ATOM      3  C03 UNK A   1      46.094  28.495  39.566  0.00  0.00    +0.012 C 
ATOM      4  C11 UNK A   1      43.983  29.652  39.188  0.00  0.00    +0.010 C 
ATOM      5  C12 UNK A   1      42.579  29.638  39.261  0.00  0.00    +0.001 C 
ATOM      6  C13 UNK A   1      41.934  28.630  39.979  0.00  0.00    +0.002 C 
ATOM      7  C14 UNK A   1      42.676  27.714  40.728  0.00  0.00    +0.029 C 
ATOM      8  C15 UNK A   1      44.079  27.724  40.685  0.00  0.00    +0.070 C 
ATOM      9  C10 UNK A   1      46.788  27.456  40.205  0.00  0.00    +0.021 C 
ATOM     10  C09 UNK A   1      44.724  28.640  39.830  0.00  0.00    +0.000 C 
ENDROOT
TORSDOF 0
ENDMDL
MODEL 2
REMARK VINA RESULT:      -5.8      1.287      3.980
REMARK  Name = BNL
REMARK  0 active torsions:
REMARK  status: ('A' for Active; 'I' for Inactive)
REMARK                            x       y       z     vdW  Elec       q    Type
REMARK                         _______ _______ _______ _____ _____    ______ ____
ROOT
ATOM      1  N01 UNK A   1      44.061  29.732  39.035  0.00  0.00    -0.256 NA
ATOM      2  C02 UNK A   1      42.715  29.763  39.132  0.00  0.00    +0.112 C 
ATOM      3  C03 UNK A   1      42.683  27.892  40.657  0.00  0.00    +0.012 C 
ATOM      4  C11 UNK A   1      44.823  26.944  41.334  0.00  0.00    +0.010 C 
ATOM      5  C12 UNK A   1      46.195  26.778  41.076  0.00  0.00    +0.001 C 
ATOM      6  C13 UNK A   1      46.814  27.556  40.097  0.00  0.00    +0.002 C 
ATOM      7  C14 UNK A   1      46.109  28.583  39.464  0.00  0.00    +0.029 C 
ATOM      8  C15 UNK A   1      44.744  28.778  39.722  0.00  0.00    +0.070 C 
ATOM      9  C10 UNK A   1      41.984  28.829  39.878  0.00  0.00    +0.021 C 
ATOM     10  C09 UNK A   1      44.084  27.886  40.591  0.00  0.00    +0.000 C 
ENDROOT
TORSDOF 0
ENDMDL
MODEL 3
REMARK VINA RESULT:      -5.8     19.550     20.488
REMARK  Name = BNL
REMARK  0 active torsions:
REMARK  status: ('A' for Active; 'I' for Inactive)
REMARK                            x       y       z     vdW  Elec       q    Type
REMARK                         _______ _______ _______ _____ _____    ______ ____
ROOT
ATOM      1  N01 UNK A   1      44.604  47.694  45.988  0.00  0.00    -0.256 NA
ATOM      2  C02 UNK A   1      44.071  46.779  45.150  0.00  0.00    +0.112 C 
ATOM      3  C03 UNK A   1      43.200  45.466  46.979  0.00  0.00    +0.012 C 
ATOM      4  C11 UNK A   1      43.543  46.304  49.241  0.00  0.00    +0.010 C 
ATOM      5  C12 UNK A   1      44.267  47.136  50.114  0.00  0.00    +0.001 C 
ATOM      6  C13 UNK A   1      45.137  48.093  49.593  0.00  0.00    +0.002 C 
ATOM      7  C14 UNK A   1      45.198  48.316  48.215  0.00  0.00    +0.029 C 
ATOM      8  C15 UNK A   1      44.468  47.510  47.328  0.00  0.00    +0.070 C 
ATOM      9  C10 UNK A   1      43.418  45.624  45.601  0.00  0.00    +0.021 C 
ATOM     10  C09 UNK A   1      43.715  46.438  47.849  0.00  0.00    +0.000 C 
ENDROOT
TORSDOF 0
ENDMDL
MODEL 4
REMARK VINA RESULT:      -5.8      0.935      3.404
REMARK  Name = BNL
REMARK  0 active torsions:
REMARK  status: ('A' for Active; 'I' for Inactive)
REMARK                            x       y       z     vdW  Elec       q    Type
REMARK                         _______ _______ _______ _____ _____    ______ ____
ROOT
ATOM      1  N01 UNK A   1      42.663  27.907  40.636  0.00  0.00    -0.256 NA
ATOM      2  C02 UNK A   1      41.972  28.871  39.990  0.00  0.00    +0.112 C 
ATOM      3  C03 UNK A   1      43.978  29.785  39.004  0.00  0.00    +0.012 C 
ATOM      4  C11 UNK A   1      46.087  28.660  39.476  0.00  0.00    +0.010 C 
ATOM      5  C12 UNK A   1      46.825  27.795  40.303  0.00  0.00    +0.001 C 
ATOM      6  C13 UNK A   1      46.167  27.033  41.268  0.00  0.00    +0.002 C 
ATOM      7  C14 UNK A   1      44.771  27.029  41.331  0.00  0.00    +0.029 C 
ATOM      8  C15 UNK A   1      44.015  27.870  40.501  0.00  0.00    +0.070 C 
ATOM      9  C10 UNK A   1      42.592  29.863  39.218  0.00  0.00    +0.021 C 
ATOM     10  C09 UNK A   1      44.691  28.758  39.640  0.00  0.00    +0.000 C 
ENDROOT
TORSDOF 0
ENDMDL
MODEL 5
REMARK VINA RESULT:      -5.8      8.853      8.988
REMARK  Name = BNL
REMARK  0 active torsions:
REMARK  status: ('A' for Active; 'I' for Inactive)
REMARK                            x       y       z     vdW  Elec       q    Type
REMARK                         _______ _______ _______ _____ _____    ______ ____
ROOT
ATOM      1  N01 UNK A   1      51.889  33.516  41.154  0.00  0.00    -0.256 NA
ATOM      2  C02 UNK A   1      52.336  33.298  39.898  0.00  0.00    +0.112 C 
ATOM      3  C03 UNK A   1      50.587  34.654  38.934  0.00  0.00    +0.012 C 
ATOM      4  C11 UNK A   1      49.033  35.752  40.457  0.00  0.00    +0.010 C 
ATOM      5  C12 UNK A   1      48.449  35.812  41.734  0.00  0.00    +0.001 C 
ATOM      6  C13 UNK A   1      48.984  35.055  42.776  0.00  0.00    +0.002 C 
ATOM      7  C14 UNK A   1      50.170  34.340  42.591  0.00  0.00    +0.029 C 
ATOM      8  C15 UNK A   1      50.781  34.283  41.329  0.00  0.00    +0.070 C 
ATOM      9  C10 UNK A   1      51.683  33.793  38.762  0.00  0.00    +0.021 C 
ATOM     10  C09 UNK A   1      50.147  34.917  40.240  0.00  0.00    +0.000 C 
ENDROOT
TORSDOF 0
ENDMDL
MODEL 6
REMARK VINA RESULT:      -5.6     29.240     30.978
REMARK  Name = BNL
REMARK  0 active torsions:
REMARK  status: ('A' for Active; 'I' for Inactive)
REMARK                            x       y       z     vdW  Elec       q    Type
REMARK                         _______ _______ _______ _____ _____    ______ ____
ROOT
ATOM      1  N01 UNK A   1      24.521  53.310  43.773  0.00  0.00    -0.256 NA
ATOM      2  C02 UNK A   1      25.030  54.456  44.275  0.00  0.00    +0.112 C 
ATOM      3  C03 UNK A   1      27.094  54.191  43.050  0.00  0.00    +0.012 C 
ATOM      4  C11 UNK A   1      27.295  52.266  41.569  0.00  0.00    +0.010 C 
ATOM      5  C12 UNK A   1      26.855  50.981  41.209  0.00  0.00    +0.001 C 
ATOM      6  C13 UNK A   1      25.680  50.472  41.761  0.00  0.00    +0.002 C 
ATOM      7  C14 UNK A   1      24.873  51.279  42.568  0.00  0.00    +0.029 C 
ATOM      8  C15 UNK A   1      25.285  52.573  42.923  0.00  0.00    +0.070 C 
ATOM      9  C10 UNK A   1      26.329  54.899  43.991  0.00  0.00    +0.021 C 
ATOM     10  C09 UNK A   1      26.550  53.023  42.495  0.00  0.00    +0.000 C 
ENDROOT
TORSDOF 0
ENDMDL
MODEL 7
REMARK VINA RESULT:      -5.6      8.867      9.170
REMARK  Name = BNL
REMARK  0 active torsions:
REMARK  status: ('A' for Active; 'I' for Inactive)
REMARK                            x       y       z     vdW  Elec       q    Type
REMARK                         _______ _______ _______ _____ _____    ______ ____
ROOT
ATOM      1  N01 UNK A   1      52.111  33.396  40.718  0.00  0.00    -0.256 NA
ATOM      2  C02 UNK A   1      52.800  32.817  41.725  0.00  0.00    +0.112 C 
ATOM      3  C03 UNK A   1      51.242  33.620  43.384  0.00  0.00    +0.012 C 
ATOM      4  C11 UNK A   1      49.311  34.887  42.608  0.00  0.00    +0.010 C 
ATOM      5  C12 UNK A   1      48.711  35.657  41.596  0.00  0.00    +0.001 C 
ATOM      6  C13 UNK A   1      49.294  35.709  40.330  0.00  0.00    +0.002 C 
ATOM      7  C14 UNK A   1      50.393  34.902  40.026  0.00  0.00    +0.029 C 
ATOM      8  C15 UNK A   1      50.994  34.111  41.017  0.00  0.00    +0.070 C 
ATOM      9  C10 UNK A   1      52.439  32.954  43.071  0.00  0.00    +0.021 C 
ATOM     10  C09 UNK A   1      50.502  34.185  42.336  0.00  0.00    +0.000 C 
ENDROOT
TORSDOF 0
ENDMDL
MODEL 8
REMARK VINA RESULT:      -5.5      1.037      3.258
REMARK  Name = BNL
REMARK  0 active torsions:
REMARK  status: ('A' for Active; 'I' for Inactive)
REMARK                            x       y       z     vdW  Elec       q    Type
REMARK                         _______ _______ _______ _____ _____    ______ ____
ROOT
ATOM      1  N01 UNK A   1      44.103  26.567  42.315  0.00  0.00    -0.256 NA
ATOM      2  C02 UNK A   1      42.854  26.949  42.656  0.00  0.00    +0.112 C 
ATOM      3  C03 UNK A   1      42.823  28.690  40.984  0.00  0.00    +0.012 C 
ATOM      4  C11 UNK A   1      44.774  28.911  39.541  0.00  0.00    +0.010 C 
ATOM      5  C12 UNK A   1      46.139  28.654  39.324  0.00  0.00    +0.001 C 
ATOM      6  C13 UNK A   1      46.813  27.755  40.150  0.00  0.00    +0.002 C 
ATOM      7  C14 UNK A   1      46.112  27.015  41.106  0.00  0.00    +0.029 C 
ATOM      8  C15 UNK A   1      44.745  27.242  41.324  0.00  0.00    +0.070 C 
ATOM      9  C10 UNK A   1      42.203  28.039  42.063  0.00  0.00    +0.021 C 
ATOM     10  C09 UNK A   1      44.104  28.267  40.599  0.00  0.00    +0.000 C 
ENDROOT
TORSDOF 0
ENDMDL
MODEL 9
REMARK VINA RESULT:      -5.4      1.393      3.735
REMARK  Name = BNL
REMARK  0 active torsions:
REMARK  status: ('A' for Active; 'I' for Inactive)
REMARK                            x       y       z     vdW  Elec       q    Type
REMARK                         _______ _______ _______ _____ _____    ______ ____
ROOT
ATOM      1  N01 UNK A   1      42.573  28.675  40.227  0.00  0.00    -0.256 NA
ATOM      2  C02 UNK A   1      41.663  27.943  40.904  0.00  0.00    +0.112 C 
ATOM      3  C03 UNK A   1      43.371  26.551  41.889  0.00  0.00    +0.012 C 
ATOM      4  C11 UNK A   1      45.695  27.065  41.366  0.00  0.00    +0.010 C 
ATOM      5  C12 UNK A   1      46.621  27.686  40.511  0.00  0.00    +0.001 C 
ATOM      6  C13 UNK A   1      46.172  28.576  39.535  0.00  0.00    +0.002 C 
ATOM      7  C14 UNK A   1      44.826  28.949  39.487  0.00  0.00    +0.029 C 
ATOM      8  C15 UNK A   1      43.889  28.355  40.346  0.00  0.00    +0.070 C 
ATOM      9  C10 UNK A   1      42.011  26.838  41.693  0.00  0.00    +0.021 C 
ATOM     10  C09 UNK A   1      44.321  27.337  41.221  0.00  0.00    +0.000 C 
ENDROOT
TORSDOF 0
ENDMDL
