MODEL 1
REMARK VINA RESULT:      -7.6      0.000      0.000
REMARK  Name = BNL
REMARK  0 active torsions:
REMARK  status: ('A' for Active; 'I' for Inactive)
REMARK                            x       y       z     vdW  Elec       q    Type
REMARK                         _______ _______ _______ _____ _____    ______ ____
ROOT
ATOM      1  C1  BNL A   1      50.460  34.989  40.671  0.00  0.00    +0.000 A 
ATOM      2  C2  BNL A   1      50.496  34.322  41.899  0.00  0.00    +0.000 A 
ATOM      3  C3  BNL A   1      49.367  34.324  42.723  0.00  0.00    +0.000 A 
ATOM      4  C4  BNL A   1      48.206  34.984  42.319  0.00  0.00    +0.000 A 
ATOM      5  C5  BNL A   1      48.173  35.647  41.093  0.00  0.00    +0.000 A 
ATOM      6  C6  BNL A   1      49.300  35.650  40.270  0.00  0.00    +0.000 A 
ATOM      7  C12 BNL A   1      53.490  33.261  43.955  0.00  0.00    +0.000 A 
ATOM      8  C13 BNL A   1      54.058  32.287  43.132  0.00  0.00    +0.000 A 
ATOM      9  C14 BNL A   1      53.465  31.977  41.908  0.00  0.00    +0.000 A 
ATOM     10  C15 BNL A   1      52.304  32.639  41.509  0.00  0.00    +0.000 A 
ATOM     11  C16 BNL A   1      51.735  33.615  42.330  0.00  0.00    +0.000 A 
ATOM     12  C17 BNL A   1      52.330  33.925  43.555  0.00  0.00    +0.000 A 
ENDROOT
TORSDOF 0
ENDMDL
MODEL 2
REMARK VINA RESULT:      -7.6      0.015      1.974
REMARK  Name = BNL
REMARK  0 active torsions:
REMARK  status: ('A' for Active; 'I' for Inactive)
REMARK                            x       y       z     vdW  Elec       q    Type
REMARK                         _______ _______ _______ _____ _____    ______ ____
ROOT
ATOM      1  C1  BNL A   1      49.375  34.315  42.722  0.00  0.00    +0.000 A 
ATOM      2  C2  BNL A   1      50.508  34.324  41.902  0.00  0.00    +0.000 A 
ATOM      3  C3  BNL A   1      50.474  34.998  40.678  0.00  0.00    +0.000 A 
ATOM      4  C4  BNL A   1      49.314  35.664  40.278  0.00  0.00    +0.000 A 
ATOM      5  C5  BNL A   1      48.188  35.654  41.099  0.00  0.00    +0.000 A 
ATOM      6  C6  BNL A   1      48.218  34.980  42.319  0.00  0.00    +0.000 A 
ATOM      7  C12 BNL A   1      53.481  31.983  41.909  0.00  0.00    +0.000 A 
ATOM      8  C13 BNL A   1      54.067  32.287  43.139  0.00  0.00    +0.000 A 
ATOM      9  C14 BNL A   1      53.494  33.254  43.965  0.00  0.00    +0.000 A 
ATOM     10  C15 BNL A   1      52.336  33.918  43.560  0.00  0.00    +0.000 A 
ATOM     11  C16 BNL A   1      51.747  33.614  42.330  0.00  0.00    +0.000 A 
ATOM     12  C17 BNL A   1      52.322  32.646  41.505  0.00  0.00    +0.000 A 
ENDROOT
TORSDOF 0
ENDMDL
MODEL 3
REMARK VINA RESULT:      -7.6      0.040      5.032
REMARK  Name = BNL
REMARK  0 active torsions:
REMARK  status: ('A' for Active; 'I' for Inactive)
REMARK                            x       y       z     vdW  Elec       q    Type
REMARK                         _______ _______ _______ _____ _____    ______ ____
ROOT
ATOM      1  C1  BNL A   1      52.369  33.919  43.559  0.00  0.00    +0.000 A 
ATOM      2  C2  BNL A   1      51.771  33.606  42.334  0.00  0.00    +0.000 A 
ATOM      3  C3  BNL A   1      52.339  32.626  41.515  0.00  0.00    +0.000 A 
ATOM      4  C4  BNL A   1      53.496  31.958  41.921  0.00  0.00    +0.000 A 
ATOM      5  C5  BNL A   1      54.088  32.272  43.143  0.00  0.00    +0.000 A 
ATOM      6  C6  BNL A   1      53.525  33.252  43.961  0.00  0.00    +0.000 A 
ATOM      7  C12 BNL A   1      49.342  35.645  40.270  0.00  0.00    +0.000 A 
ATOM      8  C13 BNL A   1      48.217  35.650  41.097  0.00  0.00    +0.000 A 
ATOM      9  C14 BNL A   1      48.250  34.991  42.325  0.00  0.00    +0.000 A 
ATOM     10  C15 BNL A   1      49.408  34.323  42.726  0.00  0.00    +0.000 A 
ATOM     11  C16 BNL A   1      50.536  34.318  41.901  0.00  0.00    +0.000 A 
ATOM     12  C17 BNL A   1      50.500  34.980  40.672  0.00  0.00    +0.000 A 
ENDROOT
TORSDOF 0
ENDMDL
MODEL 4
REMARK VINA RESULT:      -6.7      0.793      4.830
REMARK  Name = BNL
REMARK  0 active torsions:
REMARK  status: ('A' for Active; 'I' for Inactive)
REMARK                            x       y       z     vdW  Elec       q    Type
REMARK                         _______ _______ _______ _____ _____    ______ ____
ROOT
ATOM      1  C1  BNL A   1      52.231  31.842  41.624  0.00  0.00    +0.000 A 
ATOM      2  C2  BNL A   1      52.080  33.040  42.328  0.00  0.00    +0.000 A 
ATOM      3  C3  BNL A   1      52.954  33.345  43.376  0.00  0.00    +0.000 A 
ATOM      4  C4  BNL A   1      53.977  32.458  43.714  0.00  0.00    +0.000 A 
ATOM      5  C5  BNL A   1      54.125  31.265  43.009  0.00  0.00    +0.000 A 
ATOM      6  C6  BNL A   1      53.253  30.957  41.965  0.00  0.00    +0.000 A 
ATOM      7  C12 BNL A   1      49.051  35.292  42.588  0.00  0.00    +0.000 A 
ATOM      8  C13 BNL A   1      48.945  35.764  41.279  0.00  0.00    +0.000 A 
ATOM      9  C14 BNL A   1      49.860  35.347  40.312  0.00  0.00    +0.000 A 
ATOM     10  C15 BNL A   1      50.882  34.462  40.655  0.00  0.00    +0.000 A 
ATOM     11  C16 BNL A   1      50.989  33.988  41.965  0.00  0.00    +0.000 A 
ATOM     12  C17 BNL A   1      50.071  34.406  42.931  0.00  0.00    +0.000 A 
ENDROOT
TORSDOF 0
ENDMDL
MODEL 5
REMARK VINA RESULT:      -6.2      8.984     10.627
REMARK  Name = BNL
REMARK  0 active torsions:
REMARK  status: ('A' for Active; 'I' for Inactive)
REMARK                            x       y       z     vdW  Elec       q    Type
REMARK                         _______ _______ _______ _____ _____    ______ ____
ROOT
ATOM      1  C1  BNL A   1      43.915  28.644  40.231  0.00  0.00    +0.000 A 
ATOM      2  C2  BNL A   1      44.154  27.858  41.362  0.00  0.00    +0.000 A 
ATOM      3  C3  BNL A   1      45.439  27.360  41.602  0.00  0.00    +0.000 A 
ATOM      4  C4  BNL A   1      46.479  27.653  40.719  0.00  0.00    +0.000 A 
ATOM      5  C5  BNL A   1      46.236  28.439  39.594  0.00  0.00    +0.000 A 
ATOM      6  C6  BNL A   1      44.955  28.933  39.349  0.00  0.00    +0.000 A 
ATOM      7  C12 BNL A   1      41.696  25.934  43.499  0.00  0.00    +0.000 A 
ATOM      8  C13 BNL A   1      40.961  26.972  44.075  0.00  0.00    +0.000 A 
ATOM      9  C14 BNL A   1      41.266  28.297  43.767  0.00  0.00    +0.000 A 
ATOM     10  C15 BNL A   1      42.308  28.584  42.885  0.00  0.00    +0.000 A 
ATOM     11  C16 BNL A   1      43.044  27.547  42.306  0.00  0.00    +0.000 A 
ATOM     12  C17 BNL A   1      42.736  26.221  42.616  0.00  0.00    +0.000 A 
ENDROOT
TORSDOF 0
ENDMDL
MODEL 6
REMARK VINA RESULT:      -6.2      8.983     10.237
REMARK  Name = BNL
REMARK  0 active torsions:
REMARK  status: ('A' for Active; 'I' for Inactive)
REMARK                            x       y       z     vdW  Elec       q    Type
REMARK                         _______ _______ _______ _____ _____    ______ ____
ROOT
ATOM      1  C1  BNL A   1      42.339  28.599  42.915  0.00  0.00    +0.000 A 
ATOM      2  C2  BNL A   1      43.042  27.555  42.306  0.00  0.00    +0.000 A 
ATOM      3  C3  BNL A   1      42.697  26.229  42.586  0.00  0.00    +0.000 A 
ATOM      4  C4  BNL A   1      41.650  25.949  43.466  0.00  0.00    +0.000 A 
ATOM      5  C5  BNL A   1      40.951  26.993  44.070  0.00  0.00    +0.000 A 
ATOM      6  C6  BNL A   1      41.295  28.316  43.795  0.00  0.00    +0.000 A 
ATOM      7  C12 BNL A   1      46.469  27.596  40.704  0.00  0.00    +0.000 A 
ATOM      8  C13 BNL A   1      46.246  28.418  39.598  0.00  0.00    +0.000 A 
ATOM      9  C14 BNL A   1      44.979  28.958  39.375  0.00  0.00    +0.000 A 
ATOM     10  C15 BNL A   1      43.936  28.674  40.256  0.00  0.00    +0.000 A 
ATOM     11  C16 BNL A   1      44.158  27.853  41.365  0.00  0.00    +0.000 A 
ATOM     12  C17 BNL A   1      45.427  27.315  41.587  0.00  0.00    +0.000 A 
ENDROOT
TORSDOF 0
ENDMDL
MODEL 7
REMARK VINA RESULT:      -6.1      8.810     10.149
REMARK  Name = BNL
REMARK  0 active torsions:
REMARK  status: ('A' for Active; 'I' for Inactive)
REMARK                            x       y       z     vdW  Elec       q    Type
REMARK                         _______ _______ _______ _____ _____    ______ ____
ROOT
ATOM      1  C1  BNL A   1      45.970  27.360  41.346  0.00  0.00    +0.000 A 
ATOM      2  C2  BNL A   1      44.634  27.769  41.403  0.00  0.00    +0.000 A 
ATOM      3  C3  BNL A   1      44.118  28.595  40.400  0.00  0.00    +0.000 A 
ATOM      4  C4  BNL A   1      44.932  29.007  39.344  0.00  0.00    +0.000 A 
ATOM      5  C5  BNL A   1      46.263  28.596  39.290  0.00  0.00    +0.000 A 
ATOM      6  C6  BNL A   1      46.782  27.774  40.290  0.00  0.00    +0.000 A 
ATOM      7  C12 BNL A   1      42.287  27.856  44.368  0.00  0.00    +0.000 A 
ATOM      8  C13 BNL A   1      42.137  26.495  44.641  0.00  0.00    +0.000 A 
ATOM      9  C14 BNL A   1      42.802  25.550  43.859  0.00  0.00    +0.000 A 
ATOM     10  C15 BNL A   1      43.612  25.966  42.803  0.00  0.00    +0.000 A 
ATOM     11  C16 BNL A   1      43.765  27.328  42.529  0.00  0.00    +0.000 A 
ATOM     12  C17 BNL A   1      43.099  28.272  43.314  0.00  0.00    +0.000 A 
ENDROOT
TORSDOF 0
ENDMDL
MODEL 8
REMARK VINA RESULT:      -6.0      1.274      2.579
REMARK  Name = BNL
REMARK  0 active torsions:
REMARK  status: ('A' for Active; 'I' for Inactive)
REMARK                            x       y       z     vdW  Elec       q    Type
REMARK                         _______ _______ _______ _____ _____    ______ ____
ROOT
ATOM      1  C1  BNL A   1      50.790  34.363  41.779  0.00  0.00    +0.000 A 
ATOM      2  C2  BNL A   1      51.706  33.605  41.044  0.00  0.00    +0.000 A 
ATOM      3  C3  BNL A   1      51.787  33.767  39.657  0.00  0.00    +0.000 A 
ATOM      4  C4  BNL A   1      50.959  34.687  39.011  0.00  0.00    +0.000 A 
ATOM      5  C5  BNL A   1      50.048  35.442  39.748  0.00  0.00    +0.000 A 
ATOM      6  C6  BNL A   1      49.963  35.280  41.130  0.00  0.00    +0.000 A 
ATOM      7  C12 BNL A   1      53.432  30.372  41.983  0.00  0.00    +0.000 A 
ATOM      8  C13 BNL A   1      54.250  30.793  43.033  0.00  0.00    +0.000 A 
ATOM      9  C14 BNL A   1      54.239  32.128  43.435  0.00  0.00    +0.000 A 
ATOM     10  C15 BNL A   1      53.412  33.044  42.784  0.00  0.00    +0.000 A 
ATOM     11  C16 BNL A   1      52.591  32.625  41.734  0.00  0.00    +0.000 A 
ATOM     12  C17 BNL A   1      52.603  31.287  41.335  0.00  0.00    +0.000 A 
ENDROOT
TORSDOF 0
ENDMDL
MODEL 9
REMARK VINA RESULT:      -6.0      9.032     10.200
REMARK  Name = BNL
REMARK  0 active torsions:
REMARK  status: ('A' for Active; 'I' for Inactive)
REMARK                            x       y       z     vdW  Elec       q    Type
REMARK                         _______ _______ _______ _____ _____    ______ ____
ROOT
ATOM      1  C1  BNL A   1      43.562  25.636  42.529  0.00  0.00    +0.000 A 
ATOM      2  C2  BNL A   1      43.770  27.013  42.401  0.00  0.00    +0.000 A 
ATOM      3  C3  BNL A   1      43.133  27.896  43.278  0.00  0.00    +0.000 A 
ATOM      4  C4  BNL A   1      42.297  27.405  44.281  0.00  0.00    +0.000 A 
ATOM      5  C5  BNL A   1      42.093  26.032  44.407  0.00  0.00    +0.000 A 
ATOM      6  C6  BNL A   1      42.724  25.148  43.532  0.00  0.00    +0.000 A 
ATOM      7  C12 BNL A   1      45.029  28.971  39.418  0.00  0.00    +0.000 A 
ATOM      8  C13 BNL A   1      46.345  28.515  39.326  0.00  0.00    +0.000 A 
ATOM      9  C14 BNL A   1      46.821  27.571  40.234  0.00  0.00    +0.000 A 
ATOM     10  C15 BNL A   1      45.982  27.084  41.237  0.00  0.00    +0.000 A 
ATOM     11  C16 BNL A   1      44.664  27.537  41.330  0.00  0.00    +0.000 A 
ATOM     12  C17 BNL A   1      44.189  28.483  40.418  0.00  0.00    +0.000 A 
ENDROOT
TORSDOF 0
ENDMDL
