MODEL 1
REMARK VINA RESULT:      -7.1      0.000      0.000
REMARK  Name = BNL
REMARK  2 active torsions:
REMARK  status: ('A' for Active; 'I' for Inactive)
REMARK    1  A    between atoms: C01_1  and  N02_4
REMARK    2  A    between atoms: N02_4  and  C10_12
REMARK                            x       y       z     vdW  Elec       q    Type
REMARK                         _______ _______ _______ _____ _____    ______ ____
ROOT
ATOM      1  N01 UNK A   1      52.761  33.784  37.295  0.00  0.00    -0.254 NA
ATOM      2  C02 UNK A   1      52.037  34.722  37.929  0.00  0.00    +0.135 C 
ATOM      3  C03 UNK A   1      51.854  33.379  39.915  0.00  0.00    +0.035 C 
ATOM      4  C09 UNK A   1      52.604  32.382  39.252  0.00  0.00    +0.002 C 
ATOM      5  C10 UNK A   1      51.561  34.587  39.255  0.00  0.00    +0.046 C 
ATOM      6  C11 UNK A   1      52.906  31.159  39.884  0.00  0.00    +0.010 C 
ATOM      7  C12 UNK A   1      53.661  30.186  39.209  0.00  0.00    +0.000 C 
ATOM      8  C13 UNK A   1      54.116  30.433  37.907  0.00  0.00    +0.002 C 
ATOM      9  C14 UNK A   1      53.812  31.647  37.274  0.00  0.00    +0.029 C 
ATOM     10  C15 UNK A   1      53.053  32.631  37.931  0.00  0.00    +0.070 C 
ENDROOT
BRANCH   5  11
ATOM     11  N02 UNK A   1      50.821  35.591  39.902  0.00  0.00    -0.333 N 
ATOM     12  H07 UNK A   1      51.312  36.463  40.020  0.00  0.00    +0.147 HD
BRANCH  11  13
ATOM     13  C01 UNK A   1      49.832  35.280  40.959  0.00  0.00    +0.057 C 
ATOM     14  C04 UNK A   1      50.120  35.937  42.286  0.00  0.00    -0.001 C 
ATOM     15  C05 UNK A   1      49.138  36.117  43.184  0.00  0.00    -0.002 C 
ATOM     16  C06 UNK A   1      47.850  35.893  42.860  0.00  0.00    -0.001 C 
ATOM     17  C07 UNK A   1      48.379  35.571  40.613  0.00  0.00    -0.001 C 
ATOM     18  C08 UNK A   1      47.461  35.672  41.585  0.00  0.00    -0.002 C 
ENDBRANCH  11  13
ENDBRANCH   5  11
TORSDOF 2
ENDMDL
MODEL 2
REMARK VINA RESULT:      -7.1      3.604      6.225
REMARK  Name = BNL
REMARK  2 active torsions:
REMARK  status: ('A' for Active; 'I' for Inactive)
REMARK    1  A    between atoms: C01_1  and  N02_4
REMARK    2  A    between atoms: N02_4  and  C10_12
REMARK                            x       y       z     vdW  Elec       q    Type
REMARK                         _______ _______ _______ _____ _____    ______ ____
ROOT
ATOM      1  N01 UNK A   1      51.792  33.796  40.010  0.00  0.00    -0.254 NA
ATOM      2  C02 UNK A   1      52.652  32.993  40.660  0.00  0.00    +0.135 C 
ATOM      3  C03 UNK A   1      51.522  33.317  42.757  0.00  0.00    +0.035 C 
ATOM      4  C09 UNK A   1      50.621  34.172  42.085  0.00  0.00    +0.002 C 
ATOM      5  C10 UNK A   1      52.563  32.698  42.041  0.00  0.00    +0.046 C 
ATOM      6  C11 UNK A   1      49.573  34.813  42.776  0.00  0.00    +0.010 C 
ATOM      7  C12 UNK A   1      48.683  35.652  42.086  0.00  0.00    +0.000 C 
ATOM      8  C13 UNK A   1      48.837  35.850  40.707  0.00  0.00    +0.002 C 
ATOM      9  C14 UNK A   1      49.882  35.218  40.018  0.00  0.00    +0.029 C 
ATOM     10  C15 UNK A   1      50.787  34.379  40.693  0.00  0.00    +0.070 C 
ENDROOT
BRANCH   5  11
ATOM     11  N02 UNK A   1      53.465  31.841  42.693  0.00  0.00    -0.333 N 
ATOM     12  H07 UNK A   1      53.035  31.061  43.166  0.00  0.00    +0.147 HD
BRANCH  11  13
ATOM     13  C01 UNK A   1      54.713  32.339  43.315  0.00  0.00    +0.057 C 
ATOM     14  C04 UNK A   1      55.808  32.660  42.328  0.00  0.00    -0.001 C 
ATOM     15  C05 UNK A   1      56.800  33.501  42.662  0.00  0.00    -0.002 C 
ATOM     16  C06 UNK A   1      56.748  34.220  43.800  0.00  0.00    -0.001 C 
ATOM     17  C07 UNK A   1      54.561  33.542  44.234  0.00  0.00    -0.001 C 
ATOM     18  C08 UNK A   1      55.630  34.286  44.554  0.00  0.00    -0.002 C 
ENDBRANCH  11  13
ENDBRANCH   5  11
TORSDOF 2
ENDMDL
MODEL 3
REMARK VINA RESULT:      -7.0     12.387     13.188
REMARK  Name = BNL
REMARK  2 active torsions:
REMARK  status: ('A' for Active; 'I' for Inactive)
REMARK    1  A    between atoms: C01_1  and  N02_4
REMARK    2  A    between atoms: N02_4  and  C10_12
REMARK                            x       y       z     vdW  Elec       q    Type
REMARK                         _______ _______ _______ _____ _____    ______ ____
ROOT
ATOM      1  N01 UNK A   1      43.147  22.316  39.365  0.00  0.00    -0.254 NA
ATOM      2  C02 UNK A   1      43.515  23.086  40.404  0.00  0.00    +0.135 C 
ATOM      3  C03 UNK A   1      41.627  24.546  40.118  0.00  0.00    +0.035 C 
ATOM      4  C09 UNK A   1      41.239  23.751  39.016  0.00  0.00    +0.002 C 
ATOM      5  C10 UNK A   1      42.785  24.216  40.845  0.00  0.00    +0.046 C 
ATOM      6  C11 UNK A   1      40.089  24.062  38.264  0.00  0.00    +0.010 C 
ATOM      7  C12 UNK A   1      39.717  23.252  37.179  0.00  0.00    +0.000 C 
ATOM      8  C13 UNK A   1      40.491  22.132  36.846  0.00  0.00    +0.002 C 
ATOM      9  C14 UNK A   1      41.639  21.823  37.590  0.00  0.00    +0.029 C 
ATOM     10  C15 UNK A   1      42.031  22.626  38.676  0.00  0.00    +0.070 C 
ENDROOT
BRANCH   5  11
ATOM     11  N02 UNK A   1      43.182  24.993  41.946  0.00  0.00    -0.333 N 
ATOM     12  H07 UNK A   1      42.466  25.131  42.641  0.00  0.00    +0.147 HD
BRANCH  11  13
ATOM     13  C01 UNK A   1      44.150  26.106  41.814  0.00  0.00    +0.057 C 
ATOM     14  C04 UNK A   1      45.476  25.702  41.219  0.00  0.00    -0.001 C 
ATOM     15  C05 UNK A   1      46.271  26.618  40.643  0.00  0.00    -0.002 C 
ATOM     16  C06 UNK A   1      45.833  27.872  40.412  0.00  0.00    -0.001 C 
ATOM     17  C07 UNK A   1      43.658  27.323  41.045  0.00  0.00    -0.001 C 
ATOM     18  C08 UNK A   1      44.535  28.214  40.559  0.00  0.00    -0.002 C 
ENDBRANCH  11  13
ENDBRANCH   5  11
TORSDOF 2
ENDMDL
MODEL 4
REMARK VINA RESULT:      -6.8     10.450     11.553
REMARK  Name = BNL
REMARK  2 active torsions:
REMARK  status: ('A' for Active; 'I' for Inactive)
REMARK    1  A    between atoms: C01_1  and  N02_4
REMARK    2  A    between atoms: N02_4  and  C10_12
REMARK                            x       y       z     vdW  Elec       q    Type
REMARK                         _______ _______ _______ _____ _____    ______ ____
ROOT
ATOM      1  N01 UNK A   1      44.342  26.414  42.266  0.00  0.00    -0.254 NA
ATOM      2  C02 UNK A   1      43.072  26.701  42.602  0.00  0.00    +0.135 C 
ATOM      3  C03 UNK A   1      42.929  28.448  40.956  0.00  0.00    +0.035 C 
ATOM      4  C09 UNK A   1      44.268  28.162  40.606  0.00  0.00    +0.002 C 
ATOM      5  C10 UNK A   1      42.299  27.705  41.971  0.00  0.00    +0.046 C 
ATOM      6  C11 UNK A   1      44.928  28.895  39.599  0.00  0.00    +0.010 C 
ATOM      7  C12 UNK A   1      46.256  28.587  39.261  0.00  0.00    +0.000 C 
ATOM      8  C13 UNK A   1      46.923  27.548  39.924  0.00  0.00    +0.002 C 
ATOM      9  C14 UNK A   1      46.269  26.820  40.929  0.00  0.00    +0.029 C 
ATOM     10  C15 UNK A   1      44.942  27.118  41.286  0.00  0.00    +0.070 C 
ENDROOT
BRANCH   5  11
ATOM     11  N02 UNK A   1      40.967  27.973  42.328  0.00  0.00    -0.333 N 
ATOM     12  H07 UNK A   1      40.721  28.950  42.324  0.00  0.00    +0.147 HD
BRANCH  11  13
ATOM     13  C01 UNK A   1      40.237  27.147  43.317  0.00  0.00    +0.057 C 
ATOM     14  C04 UNK A   1      40.054  27.811  44.659  0.00  0.00    -0.001 C 
ATOM     15  C05 UNK A   1      39.078  27.409  45.490  0.00  0.00    -0.002 C 
ATOM     16  C06 UNK A   1      38.128  26.546  45.080  0.00  0.00    -0.001 C 
ATOM     17  C07 UNK A   1      38.876  26.633  42.874  0.00  0.00    -0.001 C 
ATOM     18  C08 UNK A   1      37.991  26.197  43.782  0.00  0.00    -0.002 C 
ENDBRANCH  11  13
ENDBRANCH   5  11
TORSDOF 2
ENDMDL
MODEL 5
REMARK VINA RESULT:      -6.8     10.976     13.412
REMARK  Name = BNL
REMARK  2 active torsions:
REMARK  status: ('A' for Active; 'I' for Inactive)
REMARK    1  A    between atoms: C01_1  and  N02_4
REMARK    2  A    between atoms: N02_4  and  C10_12
REMARK                            x       y       z     vdW  Elec       q    Type
REMARK                         _______ _______ _______ _____ _____    ______ ____
ROOT
ATOM      1  N01 UNK A   1      39.512  26.799  42.036  0.00  0.00    -0.254 NA
ATOM      2  C02 UNK A   1      40.681  27.412  41.782  0.00  0.00    +0.135 C 
ATOM      3  C03 UNK A   1      40.971  28.030  44.087  0.00  0.00    +0.035 C 
ATOM      4  C09 UNK A   1      39.736  27.400  44.362  0.00  0.00    +0.002 C 
ATOM      5  C10 UNK A   1      41.473  28.039  42.773  0.00  0.00    +0.046 C 
ATOM      6  C11 UNK A   1      39.203  27.382  45.666  0.00  0.00    +0.010 C 
ATOM      7  C12 UNK A   1      37.979  26.742  45.918  0.00  0.00    +0.000 C 
ATOM      8  C13 UNK A   1      37.289  26.118  44.870  0.00  0.00    +0.002 C 
ATOM      9  C14 UNK A   1      37.815  26.139  43.570  0.00  0.00    +0.029 C 
ATOM     10  C15 UNK A   1      39.036  26.780  43.297  0.00  0.00    +0.070 C 
ENDROOT
BRANCH   5  11
ATOM     11  N02 UNK A   1      42.701  28.658  42.484  0.00  0.00    -0.333 N 
ATOM     12  H07 UNK A   1      42.689  29.663  42.546  0.00  0.00    +0.147 HD
BRANCH  11  13
ATOM     13  C01 UNK A   1      43.644  28.103  41.486  0.00  0.00    +0.057 C 
ATOM     14  C04 UNK A   1      43.827  28.968  40.263  0.00  0.00    -0.001 C 
ATOM     15  C05 UNK A   1      44.926  28.845  39.501  0.00  0.00    -0.002 C 
ATOM     16  C06 UNK A   1      45.969  28.093  39.902  0.00  0.00    -0.001 C 
ATOM     17  C07 UNK A   1      45.030  27.752  42.007  0.00  0.00    -0.001 C 
ATOM     18  C08 UNK A   1      46.051  27.593  41.153  0.00  0.00    -0.002 C 
ENDBRANCH  11  13
ENDBRANCH   5  11
TORSDOF 2
ENDMDL
MODEL 6
REMARK VINA RESULT:      -6.7     15.039     16.885
REMARK  Name = BNL
REMARK  2 active torsions:
REMARK  status: ('A' for Active; 'I' for Inactive)
REMARK    1  A    between atoms: C01_1  and  N02_4
REMARK    2  A    between atoms: N02_4  and  C10_12
REMARK                            x       y       z     vdW  Elec       q    Type
REMARK                         _______ _______ _______ _____ _____    ______ ____
ROOT
ATOM      1  N01 UNK A   1      46.964  49.437  46.375  0.00  0.00    -0.254 NA
ATOM      2  C02 UNK A   1      46.224  49.470  47.496  0.00  0.00    +0.135 C 
ATOM      3  C03 UNK A   1      44.891  47.598  46.790  0.00  0.00    +0.035 C 
ATOM      4  C09 UNK A   1      45.655  47.564  45.602  0.00  0.00    +0.002 C 
ATOM      5  C10 UNK A   1      45.174  48.563  47.775  0.00  0.00    +0.046 C 
ATOM      6  C11 UNK A   1      45.390  46.615  44.595  0.00  0.00    +0.010 C 
ATOM      7  C12 UNK A   1      46.168  46.593  43.426  0.00  0.00    +0.000 C 
ATOM      8  C13 UNK A   1      47.210  47.515  43.264  0.00  0.00    +0.002 C 
ATOM      9  C14 UNK A   1      47.473  48.464  44.262  0.00  0.00    +0.029 C 
ATOM     10  C15 UNK A   1      46.701  48.506  45.437  0.00  0.00    +0.070 C 
ENDROOT
BRANCH   5  11
ATOM     11  N02 UNK A   1      44.427  48.608  48.964  0.00  0.00    -0.333 N 
ATOM     12  H07 UNK A   1      44.482  49.484  49.460  0.00  0.00    +0.147 HD
BRANCH  11  13
ATOM     13  C01 UNK A   1      44.237  47.414  49.818  0.00  0.00    +0.057 C 
ATOM     14  C04 UNK A   1      43.561  46.259  49.122  0.00  0.00    -0.001 C 
ATOM     15  C05 UNK A   1      43.704  45.007  49.586  0.00  0.00    -0.002 C 
ATOM     16  C06 UNK A   1      44.593  44.723  50.558  0.00  0.00    -0.001 C 
ATOM     17  C07 UNK A   1      45.492  46.872  50.486  0.00  0.00    -0.001 C 
ATOM     18  C08 UNK A   1      45.512  45.622  50.972  0.00  0.00    -0.002 C 
ENDBRANCH  11  13
ENDBRANCH   5  11
TORSDOF 2
ENDMDL
MODEL 7
REMARK VINA RESULT:      -6.5     15.049     16.525
REMARK  Name = BNL
REMARK  2 active torsions:
REMARK  status: ('A' for Active; 'I' for Inactive)
REMARK    1  A    between atoms: C01_1  and  N02_4
REMARK    2  A    between atoms: N02_4  and  C10_12
REMARK                            x       y       z     vdW  Elec       q    Type
REMARK                         _______ _______ _______ _____ _____    ______ ____
ROOT
ATOM      1  N01 UNK A   1      46.671  49.819  46.636  0.00  0.00    -0.254 NA
ATOM      2  C02 UNK A   1      45.787  49.127  47.376  0.00  0.00    +0.135 C 
ATOM      3  C03 UNK A   1      45.622  47.385  45.728  0.00  0.00    +0.035 C 
ATOM      4  C09 UNK A   1      46.540  48.111  44.937  0.00  0.00    +0.002 C 
ATOM      5  C10 UNK A   1      45.231  47.887  46.983  0.00  0.00    +0.046 C 
ATOM      6  C11 UNK A   1      46.944  47.637  43.673  0.00  0.00    +0.010 C 
ATOM      7  C12 UNK A   1      47.866  48.371  42.908  0.00  0.00    +0.000 C 
ATOM      8  C13 UNK A   1      48.385  49.574  43.405  0.00  0.00    +0.002 C 
ATOM      9  C14 UNK A   1      47.981  50.049  44.661  0.00  0.00    +0.029 C 
ATOM     10  C15 UNK A   1      47.055  49.332  45.439  0.00  0.00    +0.070 C 
ENDROOT
BRANCH   5  11
ATOM     11  N02 UNK A   1      44.322  47.175  47.784  0.00  0.00    -0.333 N 
ATOM     12  H07 UNK A   1      44.657  46.963  48.710  0.00  0.00    +0.147 HD
BRANCH  11  13
ATOM     13  C01 UNK A   1      43.383  46.182  47.214  0.00  0.00    +0.057 C 
ATOM     14  C04 UNK A   1      42.559  46.702  46.063  0.00  0.00    -0.001 C 
ATOM     15  C05 UNK A   1      42.006  45.852  45.182  0.00  0.00    -0.002 C 
ATOM     16  C06 UNK A   1      42.322  44.542  45.189  0.00  0.00    -0.001 C 
ATOM     17  C07 UNK A   1      44.002  44.864  46.772  0.00  0.00    -0.001 C 
ATOM     18  C08 UNK A   1      43.339  44.055  45.932  0.00  0.00    -0.002 C 
ENDBRANCH  11  13
ENDBRANCH   5  11
TORSDOF 2
ENDMDL
MODEL 8
REMARK VINA RESULT:      -6.4      3.039      6.460
REMARK  Name = BNL
REMARK  2 active torsions:
REMARK  status: ('A' for Active; 'I' for Inactive)
REMARK    1  A    between atoms: C01_1  and  N02_4
REMARK    2  A    between atoms: N02_4  and  C10_12
REMARK                            x       y       z     vdW  Elec       q    Type
REMARK                         _______ _______ _______ _____ _____    ______ ____
ROOT
ATOM      1  N01 UNK A   1      53.834  31.999  37.146  0.00  0.00    -0.254 NA
ATOM      2  C02 UNK A   1      54.079  30.965  37.968  0.00  0.00    +0.135 C 
ATOM      3  C03 UNK A   1      52.569  31.808  39.638  0.00  0.00    +0.035 C 
ATOM      4  C09 UNK A   1      52.315  32.905  38.786  0.00  0.00    +0.002 C 
ATOM      5  C10 UNK A   1      53.464  30.801  39.232  0.00  0.00    +0.046 C 
ATOM      6  C11 UNK A   1      51.430  33.934  39.169  0.00  0.00    +0.010 C 
ATOM      7  C12 UNK A   1      51.186  35.011  38.301  0.00  0.00    +0.000 C 
ATOM      8  C13 UNK A   1      51.821  35.061  37.053  0.00  0.00    +0.002 C 
ATOM      9  C14 UNK A   1      52.706  34.042  36.672  0.00  0.00    +0.029 C 
ATOM     10  C15 UNK A   1      52.968  32.958  37.529  0.00  0.00    +0.070 C 
ENDROOT
BRANCH   5  11
ATOM     11  N02 UNK A   1      53.724  29.700  40.066  0.00  0.00    -0.333 N 
ATOM     12  H07 UNK A   1      52.945  29.071  40.184  0.00  0.00    +0.147 HD
BRANCH  11  13
ATOM     13  C01 UNK A   1      54.638  29.792  41.227  0.00  0.00    +0.057 C 
ATOM     14  C04 UNK A   1      54.012  29.385  42.538  0.00  0.00    -0.001 C 
ATOM     15  C05 UNK A   1      54.782  29.000  43.569  0.00  0.00    -0.002 C 
ATOM     16  C06 UNK A   1      56.102  28.786  43.409  0.00  0.00    -0.001 C 
ATOM     17  C07 UNK A   1      55.953  29.039  41.097  0.00  0.00    -0.001 C 
ATOM     18  C08 UNK A   1      56.679  28.754  42.188  0.00  0.00    -0.002 C 
ENDBRANCH  11  13
ENDBRANCH   5  11
TORSDOF 2
ENDMDL
MODEL 9
REMARK VINA RESULT:      -6.2     17.072     20.006
REMARK  Name = BNL
REMARK  2 active torsions:
REMARK  status: ('A' for Active; 'I' for Inactive)
REMARK    1  A    between atoms: C01_1  and  N02_4
REMARK    2  A    between atoms: N02_4  and  C10_12
REMARK                            x       y       z     vdW  Elec       q    Type
REMARK                         _______ _______ _______ _____ _____    ______ ____
ROOT
ATOM      1  N01 UNK A   1      34.296  34.597  36.077  0.00  0.00    -0.254 NA
ATOM      2  C02 UNK A   1      33.408  35.129  35.220  0.00  0.00    +0.135 C 
ATOM      3  C03 UNK A   1      31.565  34.006  36.277  0.00  0.00    +0.035 C 
ATOM      4  C09 UNK A   1      32.492  33.430  37.175  0.00  0.00    +0.002 C 
ATOM      5  C10 UNK A   1      32.016  34.884  35.275  0.00  0.00    +0.046 C 
ATOM      6  C11 UNK A   1      32.072  32.541  38.184  0.00  0.00    +0.010 C 
ATOM      7  C12 UNK A   1      33.010  31.988  39.071  0.00  0.00    +0.000 C 
ATOM      8  C13 UNK A   1      34.365  32.324  38.952  0.00  0.00    +0.002 C 
ATOM      9  C14 UNK A   1      34.787  33.206  37.947  0.00  0.00    +0.029 C 
ATOM     10  C15 UNK A   1      33.863  33.764  37.045  0.00  0.00    +0.070 C 
ENDROOT
BRANCH   5  11
ATOM     11  N02 UNK A   1      31.106  35.468  34.377  0.00  0.00    -0.333 N 
ATOM     12  H07 UNK A   1      30.452  34.823  33.965  0.00  0.00    +0.147 HD
BRANCH  11  13
ATOM     13  C01 UNK A   1      31.476  36.618  33.522  0.00  0.00    +0.057 C 
ATOM     14  C04 UNK A   1      31.789  36.249  32.093  0.00  0.00    -0.001 C 
ATOM     15  C05 UNK A   1      31.712  37.170  31.119  0.00  0.00    -0.002 C 
ATOM     16  C06 UNK A   1      31.179  38.385  31.352  0.00  0.00    -0.001 C 
ATOM     17  C07 UNK A   1      30.477  37.766  33.486  0.00  0.00    -0.001 C 
ATOM     18  C08 UNK A   1      30.524  38.671  32.498  0.00  0.00    -0.002 C 
ENDBRANCH  11  13
ENDBRANCH   5  11
TORSDOF 2
ENDMDL
