MODEL 1
REMARK VINA RESULT:      -5.7      0.000      0.000
REMARK  0 active torsions:
REMARK  status: ('A' for Active; 'I' for Inactive)
ROOT
ATOM      1  C01 UNK A   1      54.668  67.398  37.966  1.00  0.00     0.084 A 
ATOM      2  C02 UNK A   1      55.295  66.222  38.400  1.00  0.00    -0.053 A 
ATOM      3  C03 UNK A   1      55.895  65.398  37.424  1.00  0.00    -0.081 A 
ATOM      4  C04 UNK A   1      55.869  65.755  36.053  1.00  0.00    -0.081 A 
ATOM      5  C05 UNK A   1      55.233  66.942  35.632  1.00  0.00    -0.055 A 
ATOM      6  C06 UNK A   1      54.642  67.731  36.623  1.00  0.00     0.062 A 
ATOM      7  C10 UNK A   1      53.671  69.251  37.875  1.00  0.00     0.065 A 
ATOM      8  H01 UNK A   1      53.937  69.594  35.787  1.00  0.00     0.167 HD
ATOM      9  H02 UNK A   1      53.184  70.161  38.238  1.00  0.00     0.143 H 
ATOM     10  N01 UNK A   1      54.080  68.326  38.679  1.00  0.00    -0.242 NA
ATOM     11  N02 UNK A   1      53.978  68.927  36.544  1.00  0.00    -0.349 N 
ATOM     12  H08 UNK A   1      55.322  65.959  39.452  1.00  0.00     0.087 H 
ATOM     13  H09 UNK A   1      56.392  64.481  37.729  1.00  0.00     0.083 H 
ATOM     14  H10 UNK A   1      56.346  65.111  35.321  1.00  0.00     0.083 H 
ATOM     15  H11 UNK A   1      55.208  67.231  34.585  1.00  0.00     0.087 H 
ENDROOT
TORSDOF 0
ENDMDL
MODEL 2
REMARK VINA RESULT:      -5.4     39.377     40.268
REMARK  0 active torsions:
REMARK  status: ('A' for Active; 'I' for Inactive)
ROOT
ATOM      1  C01 UNK A   1      43.973  28.407  40.409  1.00  0.00     0.084 A 
ATOM      2  C02 UNK A   1      44.340  27.468  41.382  1.00  0.00    -0.053 A 
ATOM      3  C03 UNK A   1      45.687  27.046  41.415  1.00  0.00    -0.081 A 
ATOM      4  C04 UNK A   1      46.634  27.562  40.497  1.00  0.00    -0.081 A 
ATOM      5  C05 UNK A   1      46.249  28.507  39.522  1.00  0.00    -0.055 A 
ATOM      6  C06 UNK A   1      44.907  28.897  39.512  1.00  0.00     0.062 A 
ATOM      7  C10 UNK A   1      42.926  29.801  39.227  1.00  0.00     0.065 A 
ATOM      8  H01 UNK A   1      44.597  30.505  38.104  1.00  0.00     0.167 HD
ATOM      9  H02 UNK A   1      42.094  30.428  38.895  1.00  0.00     0.143 H 
ATOM     10  N01 UNK A   1      42.807  28.967  40.208  1.00  0.00    -0.242 NA
ATOM     11  N02 UNK A   1      44.236  29.793  38.721  1.00  0.00    -0.349 N 
ATOM     12  H08 UNK A   1      43.613  27.084  42.090  1.00  0.00     0.087 H 
ATOM     13  H09 UNK A   1      46.003  26.321  42.160  1.00  0.00     0.083 H 
ATOM     14  H10 UNK A   1      47.667  27.230  40.546  1.00  0.00     0.083 H 
ATOM     15  H11 UNK A   1      46.965  28.915  38.814  1.00  0.00     0.087 H 
ENDROOT
TORSDOF 0
ENDMDL
MODEL 3
REMARK VINA RESULT:      -5.4      1.681      3.487
REMARK  0 active torsions:
REMARK  status: ('A' for Active; 'I' for Inactive)
ROOT
ATOM      1  C01 UNK A   1      55.044  66.868  36.586  1.00  0.00     0.084 A 
ATOM      2  C02 UNK A   1      54.862  67.807  35.561  1.00  0.00    -0.053 A 
ATOM      3  C03 UNK A   1      54.293  69.053  35.902  1.00  0.00    -0.081 A 
ATOM      4  C04 UNK A   1      53.924  69.343  37.238  1.00  0.00    -0.081 A 
ATOM      5  C05 UNK A   1      54.112  68.388  38.260  1.00  0.00    -0.055 A 
ATOM      6  C06 UNK A   1      54.671  67.162  37.886  1.00  0.00     0.062 A 
ATOM      7  C10 UNK A   1      55.576  65.169  37.710  1.00  0.00     0.065 A 
ATOM      8  H01 UNK A   1      55.077  65.953  39.630  1.00  0.00     0.167 HD
ATOM      9  H02 UNK A   1      56.012  64.189  37.924  1.00  0.00     0.143 H 
ATOM     10  N01 UNK A   1      55.577  65.675  36.521  1.00  0.00    -0.242 NA
ATOM     11  N02 UNK A   1      54.993  66.057  38.630  1.00  0.00    -0.349 N 
ATOM     12  H08 UNK A   1      55.157  67.583  34.541  1.00  0.00     0.087 H 
ATOM     13  H09 UNK A   1      54.143  69.802  35.130  1.00  0.00     0.083 H 
ATOM     14  H10 UNK A   1      53.497  70.312  37.479  1.00  0.00     0.083 H 
ATOM     15  H11 UNK A   1      53.838  68.597  39.290  1.00  0.00     0.087 H 
ENDROOT
TORSDOF 0
ENDMDL
MODEL 4
REMARK VINA RESULT:      -5.1     39.927     40.733
REMARK  0 active torsions:
REMARK  status: ('A' for Active; 'I' for Inactive)
ROOT
ATOM      1  C01 UNK A   1      44.167  27.800  41.588  1.00  0.00     0.084 A 
ATOM      2  C02 UNK A   1      45.477  27.307  41.654  1.00  0.00    -0.053 A 
ATOM      3  C03 UNK A   1      46.370  27.668  40.622  1.00  0.00    -0.081 A 
ATOM      4  C04 UNK A   1      45.953  28.508  39.560  1.00  0.00    -0.081 A 
ATOM      5  C05 UNK A   1      44.631  28.997  39.507  1.00  0.00    -0.055 A 
ATOM      6  C06 UNK A   1      43.771  28.613  40.540  1.00  0.00     0.062 A 
ATOM      7  C10 UNK A   1      42.161  28.294  42.000  1.00  0.00     0.065 A 
ATOM      8  H01 UNK A   1      41.884  29.654  40.380  1.00  0.00     0.167 HD
ATOM      9  H02 UNK A   1      41.223  28.346  42.560  1.00  0.00     0.143 H 
ATOM     10  N01 UNK A   1      43.183  27.633  42.435  1.00  0.00    -0.242 NA
ATOM     11  N02 UNK A   1      42.459  28.928  40.783  1.00  0.00    -0.349 N 
ATOM     12  H08 UNK A   1      45.794  26.673  42.476  1.00  0.00     0.087 H 
ATOM     13  H09 UNK A   1      47.393  27.304  40.648  1.00  0.00     0.083 H 
ATOM     14  H10 UNK A   1      46.659  28.781  38.782  1.00  0.00     0.083 H 
ATOM     15  H11 UNK A   1      44.297  29.644  38.701  1.00  0.00     0.087 H 
ENDROOT
TORSDOF 0
ENDMDL
MODEL 5
REMARK VINA RESULT:      -5.0     40.093     41.001
REMARK  0 active torsions:
REMARK  status: ('A' for Active; 'I' for Inactive)
ROOT
ATOM      1  C01 UNK A   1      43.924  28.099  41.118  1.00  0.00     0.084 A 
ATOM      2  C02 UNK A   1      43.989  28.828  39.923  1.00  0.00    -0.053 A 
ATOM      3  C03 UNK A   1      45.238  28.916  39.272  1.00  0.00    -0.081 A 
ATOM      4  C04 UNK A   1      46.385  28.282  39.809  1.00  0.00    -0.081 A 
ATOM      5  C05 UNK A   1      46.304  27.551  41.014  1.00  0.00    -0.055 A 
ATOM      6  C06 UNK A   1      45.054  27.490  41.636  1.00  0.00     0.062 A 
ATOM      7  C10 UNK A   1      43.269  27.110  42.859  1.00  0.00     0.065 A 
ATOM      8  H01 UNK A   1      45.113  26.143  43.323  1.00  0.00     0.167 HD
ATOM      9  H02 UNK A   1      42.569  26.731  43.608  1.00  0.00     0.143 H 
ATOM     10  N01 UNK A   1      42.883  27.851  41.872  1.00  0.00    -0.242 NA
ATOM     11  N02 UNK A   1      44.649  26.858  42.782  1.00  0.00    -0.349 N 
ATOM     12  H08 UNK A   1      43.105  29.303  39.510  1.00  0.00     0.087 H 
ATOM     13  H09 UNK A   1      45.320  29.472  38.342  1.00  0.00     0.083 H 
ATOM     14  H10 UNK A   1      47.334  28.355  39.287  1.00  0.00     0.083 H 
ATOM     15  H11 UNK A   1      47.173  27.056  41.437  1.00  0.00     0.087 H 
ENDROOT
TORSDOF 0
ENDMDL
MODEL 6
REMARK VINA RESULT:      -4.9     30.140     30.573
REMARK  0 active torsions:
REMARK  status: ('A' for Active; 'I' for Inactive)
ROOT
ATOM      1  C01 UNK A   1      33.490  44.799  37.717  1.00  0.00     0.084 A 
ATOM      2  C02 UNK A   1      33.221  44.345  39.015  1.00  0.00    -0.053 A 
ATOM      3  C03 UNK A   1      33.253  45.291  40.063  1.00  0.00    -0.081 A 
ATOM      4  C04 UNK A   1      33.541  46.653  39.805  1.00  0.00    -0.081 A 
ATOM      5  C05 UNK A   1      33.811  47.095  38.493  1.00  0.00    -0.055 A 
ATOM      6  C06 UNK A   1      33.778  46.132  37.480  1.00  0.00     0.062 A 
ATOM      7  C10 UNK A   1      33.752  44.946  35.632  1.00  0.00     0.065 A 
ATOM      8  H01 UNK A   1      33.989  47.064  35.543  1.00  0.00     0.167 HD
ATOM      9  H02 UNK A   1      33.763  44.628  34.586  1.00  0.00     0.143 H 
ATOM     10  N01 UNK A   1      33.484  44.125  36.595  1.00  0.00    -0.242 NA
ATOM     11  N02 UNK A   1      33.972  46.241  36.128  1.00  0.00    -0.349 N 
ATOM     12  H08 UNK A   1      32.989  43.302  39.206  1.00  0.00     0.087 H 
ATOM     13  H09 UNK A   1      33.046  44.970  41.080  1.00  0.00     0.083 H 
ATOM     14  H10 UNK A   1      33.551  47.365  40.625  1.00  0.00     0.083 H 
ATOM     15  H11 UNK A   1      34.030  48.137  38.278  1.00  0.00     0.087 H 
ENDROOT
TORSDOF 0
ENDMDL
MODEL 7
REMARK VINA RESULT:      -4.9     32.767     33.649
REMARK  0 active torsions:
REMARK  status: ('A' for Active; 'I' for Inactive)
ROOT
ATOM      1  C01 UNK A   1      50.902  34.361  41.482  1.00  0.00     0.084 A 
ATOM      2  C02 UNK A   1      50.559  35.053  40.313  1.00  0.00    -0.053 A 
ATOM      3  C03 UNK A   1      49.275  35.635  40.245  1.00  0.00    -0.081 A 
ATOM      4  C04 UNK A   1      48.369  35.527  41.329  1.00  0.00    -0.081 A 
ATOM      5  C05 UNK A   1      48.728  34.826  42.499  1.00  0.00    -0.055 A 
ATOM      6  C06 UNK A   1      50.004  34.255  42.530  1.00  0.00     0.062 A 
ATOM      7  C10 UNK A   1      51.925  33.290  42.980  1.00  0.00     0.065 A 
ATOM      8  H01 UNK A   1      50.421  33.439  44.486  1.00  0.00     0.167 HD
ATOM      9  H02 UNK A   1      52.758  32.788  43.479  1.00  0.00     0.143 H 
ATOM     10  N01 UNK A   1      52.032  33.774  41.786  1.00  0.00    -0.242 NA
ATOM     11  N02 UNK A   1      50.648  33.543  43.508  1.00  0.00    -0.349 N 
ATOM     12  H08 UNK A   1      51.261  35.142  39.490  1.00  0.00     0.087 H 
ATOM     13  H09 UNK A   1      48.981  36.181  39.354  1.00  0.00     0.083 H 
ATOM     14  H10 UNK A   1      47.390  35.991  41.259  1.00  0.00     0.083 H 
ATOM     15  H11 UNK A   1      48.046  34.737  43.340  1.00  0.00     0.087 H 
ENDROOT
TORSDOF 0
ENDMDL
MODEL 8
REMARK VINA RESULT:      -4.9     29.470     30.744
REMARK  0 active torsions:
REMARK  status: ('A' for Active; 'I' for Inactive)
ROOT
ATOM      1  C01 UNK A   1      57.352  48.357  61.630  1.00  0.00     0.084 A 
ATOM      2  C02 UNK A   1      57.376  49.750  61.478  1.00  0.00    -0.053 A 
ATOM      3  C03 UNK A   1      57.916  50.273  60.283  1.00  0.00    -0.081 A 
ATOM      4  C04 UNK A   1      58.410  49.414  59.271  1.00  0.00    -0.081 A 
ATOM      5  C05 UNK A   1      58.380  48.013  59.439  1.00  0.00    -0.055 A 
ATOM      6  C06 UNK A   1      57.846  47.529  60.637  1.00  0.00     0.062 A 
ATOM      7  C10 UNK A   1      57.028  46.398  62.332  1.00  0.00     0.065 A 
ATOM      8  H01 UNK A   1      57.689  45.376  60.581  1.00  0.00     0.167 HD
ATOM      9  H02 UNK A   1      56.667  45.602  62.989  1.00  0.00     0.143 H 
ATOM     10  N01 UNK A   1      56.875  47.648  62.622  1.00  0.00    -0.242 NA
ATOM     11  N02 UNK A   1      57.661  46.248  61.087  1.00  0.00    -0.349 N 
ATOM     12  H08 UNK A   1      56.985  50.403  62.252  1.00  0.00     0.087 H 
ATOM     13  H09 UNK A   1      57.945  51.348  60.135  1.00  0.00     0.083 H 
ATOM     14  H10 UNK A   1      58.812  49.837  58.356  1.00  0.00     0.083 H 
ATOM     15  H11 UNK A   1      58.752  47.341  58.671  1.00  0.00     0.087 H 
ENDROOT
TORSDOF 0
ENDMDL
MODEL 9
REMARK VINA RESULT:      -4.8     32.048     32.885
REMARK  0 active torsions:
REMARK  status: ('A' for Active; 'I' for Inactive)
ROOT
ATOM      1  C01 UNK A   1      50.661  34.784  42.080  1.00  0.00     0.084 A 
ATOM      2  C02 UNK A   1      51.559  33.744  41.806  1.00  0.00    -0.053 A 
ATOM      3  C03 UNK A   1      51.871  33.482  40.454  1.00  0.00    -0.081 A 
ATOM      4  C04 UNK A   1      51.298  34.253  39.413  1.00  0.00    -0.081 A 
ATOM      5  C05 UNK A   1      50.395  35.297  39.705  1.00  0.00    -0.055 A 
ATOM      6  C06 UNK A   1      50.102  35.524  41.052  1.00  0.00     0.062 A 
ATOM      7  C10 UNK A   1      49.453  36.224  43.030  1.00  0.00     0.065 A 
ATOM      8  H01 UNK A   1      48.891  37.299  41.275  1.00  0.00     0.167 HD
ATOM      9  H02 UNK A   1      49.011  36.797  43.850  1.00  0.00     0.143 H 
ATOM     10  N01 UNK A   1      50.251  35.229  43.241  1.00  0.00    -0.242 NA
ATOM     11  N02 UNK A   1      49.296  36.455  41.654  1.00  0.00    -0.349 N 
ATOM     12  H08 UNK A   1      52.003  33.163  42.608  1.00  0.00     0.087 H 
ATOM     13  H09 UNK A   1      52.566  32.684  40.210  1.00  0.00     0.083 H 
ATOM     14  H10 UNK A   1      51.560  34.041  38.381  1.00  0.00     0.083 H 
ATOM     15  H11 UNK A   1      49.951  35.900  38.918  1.00  0.00     0.087 H 
ENDROOT
TORSDOF 0
ENDMDL
