MODEL 1
REMARK VINA RESULT:      -5.2      0.000      0.000
REMARK  0 active torsions:
REMARK  status: ('A' for Active; 'I' for Inactive)
ROOT
ATOM      1  C01 UNK A   1      54.985  67.273  36.346  1.00  0.00     0.074 A 
ATOM      2  C02 UNK A   1      55.621  66.063  36.028  1.00  0.00    -0.054 A 
ATOM      3  C03 UNK A   1      55.933  65.160  37.064  1.00  0.00    -0.081 A 
ATOM      4  C04 UNK A   1      55.610  65.468  38.402  1.00  0.00    -0.082 A 
ATOM      5  C05 UNK A   1      54.972  66.682  38.716  1.00  0.00    -0.064 A 
ATOM      6  C06 UNK A   1      54.671  67.565  37.671  1.00  0.00     0.035 A 
ATOM      7  C10 UNK A   1      54.060  69.227  36.056  1.00  0.00     0.041 A 
ATOM      8  H02 UNK A   1      53.691  70.112  35.537  1.00  0.00     0.126 H 
ATOM      9  N01 UNK A   1      54.639  68.215  35.425  1.00  0.00    -0.253 NA
ATOM     10  S01 UNK A   1      53.886  69.128  37.785  1.00  0.00    -0.081 SA
ATOM     11  H08 UNK A   1      55.870  65.826  34.997  1.00  0.00     0.087 H 
ATOM     12  H09 UNK A   1      56.425  64.221  36.829  1.00  0.00     0.083 H 
ATOM     13  H10 UNK A   1      55.855  64.764  39.193  1.00  0.00     0.083 H 
ATOM     14  H11 UNK A   1      54.718  66.928  39.743  1.00  0.00     0.085 H 
ENDROOT
TORSDOF 0
ENDMDL
MODEL 2
REMARK VINA RESULT:      -5.0     39.730     40.411
REMARK  0 active torsions:
REMARK  status: ('A' for Active; 'I' for Inactive)
ROOT
ATOM      1  C01 UNK A   1      44.720  28.784  39.682  1.00  0.00     0.074 A 
ATOM      2  C02 UNK A   1      46.099  28.619  39.484  1.00  0.00    -0.054 A 
ATOM      3  C03 UNK A   1      46.782  27.625  40.213  1.00  0.00    -0.081 A 
ATOM      4  C04 UNK A   1      46.088  26.806  41.128  1.00  0.00    -0.082 A 
ATOM      5  C05 UNK A   1      44.705  26.974  41.322  1.00  0.00    -0.064 A 
ATOM      6  C06 UNK A   1      44.046  27.969  40.588  1.00  0.00     0.035 A 
ATOM      7  C10 UNK A   1      42.710  29.600  39.449  1.00  0.00     0.041 A 
ATOM      8  H02 UNK A   1      41.906  30.235  39.075  1.00  0.00     0.126 H 
ATOM      9  N01 UNK A   1      43.964  29.712  39.032  1.00  0.00    -0.253 NA
ATOM     10  S01 UNK A   1      42.344  28.385  40.639  1.00  0.00    -0.081 SA
ATOM     11  H08 UNK A   1      46.634  29.250  38.779  1.00  0.00     0.087 H 
ATOM     12  H09 UNK A   1      47.849  27.489  40.068  1.00  0.00     0.083 H 
ATOM     13  H10 UNK A   1      46.624  26.041  41.684  1.00  0.00     0.083 H 
ATOM     14  H11 UNK A   1      44.161  26.348  42.024  1.00  0.00     0.085 H 
ENDROOT
TORSDOF 0
ENDMDL
MODEL 3
REMARK VINA RESULT:      -4.9     29.427     29.952
REMARK  0 active torsions:
REMARK  status: ('A' for Active; 'I' for Inactive)
ROOT
ATOM      1  C01 UNK A   1      33.375  46.348  39.622  1.00  0.00     0.074 A 
ATOM      2  C02 UNK A   1      33.374  47.593  40.269  1.00  0.00    -0.054 A 
ATOM      3  C03 UNK A   1      33.830  48.728  39.570  1.00  0.00    -0.081 A 
ATOM      4  C04 UNK A   1      34.280  48.615  38.238  1.00  0.00    -0.082 A 
ATOM      5  C05 UNK A   1      34.279  47.364  37.593  1.00  0.00    -0.064 A 
ATOM      6  C06 UNK A   1      33.822  46.249  38.307  1.00  0.00     0.035 A 
ATOM      7  C10 UNK A   1      33.089  44.206  39.323  1.00  0.00     0.041 A 
ATOM      8  H02 UNK A   1      32.819  43.173  39.548  1.00  0.00     0.126 H 
ATOM      9  N01 UNK A   1      32.957  45.189  40.203  1.00  0.00    -0.253 NA
ATOM     10  S01 UNK A   1      33.716  44.591  37.746  1.00  0.00    -0.081 SA
ATOM     11  H08 UNK A   1      33.027  47.680  41.295  1.00  0.00     0.087 H 
ATOM     12  H09 UNK A   1      33.833  49.697  40.061  1.00  0.00     0.083 H 
ATOM     13  H10 UNK A   1      34.629  49.498  37.708  1.00  0.00     0.083 H 
ATOM     14  H11 UNK A   1      34.623  47.266  36.568  1.00  0.00     0.085 H 
ENDROOT
TORSDOF 0
ENDMDL
MODEL 4
REMARK VINA RESULT:      -4.8     30.221     31.129
REMARK  0 active torsions:
REMARK  status: ('A' for Active; 'I' for Inactive)
ROOT
ATOM      1  C01 UNK A   1      57.871  47.676  61.119  1.00  0.00     0.074 A 
ATOM      2  C02 UNK A   1      57.648  47.348  59.772  1.00  0.00    -0.054 A 
ATOM      3  C03 UNK A   1      58.676  47.568  58.835  1.00  0.00    -0.081 A 
ATOM      4  C04 UNK A   1      59.913  48.109  59.244  1.00  0.00    -0.082 A 
ATOM      5  C05 UNK A   1      60.132  48.436  60.595  1.00  0.00    -0.064 A 
ATOM      6  C06 UNK A   1      59.096  48.209  61.510  1.00  0.00     0.035 A 
ATOM      7  C10 UNK A   1      57.477  47.911  63.251  1.00  0.00     0.041 A 
ATOM      8  H02 UNK A   1      56.934  47.876  64.197  1.00  0.00     0.126 H 
ATOM      9  N01 UNK A   1      56.948  47.505  62.105  1.00  0.00    -0.253 NA
ATOM     10  S01 UNK A   1      59.106  48.523  63.235  1.00  0.00    -0.081 SA
ATOM     11  H08 UNK A   1      56.695  46.932  59.457  1.00  0.00     0.087 H 
ATOM     12  H09 UNK A   1      58.515  47.319  57.790  1.00  0.00     0.083 H 
ATOM     13  H10 UNK A   1      60.700  48.274  58.512  1.00  0.00     0.083 H 
ATOM     14  H11 UNK A   1      61.081  48.852  60.921  1.00  0.00     0.085 H 
ENDROOT
TORSDOF 0
ENDMDL
MODEL 5
REMARK VINA RESULT:      -4.8     40.182     41.123
REMARK  0 active torsions:
REMARK  status: ('A' for Active; 'I' for Inactive)
ROOT
ATOM      1  C01 UNK A   1      44.744  27.138  41.335  1.00  0.00     0.074 A 
ATOM      2  C02 UNK A   1      46.100  26.868  41.095  1.00  0.00    -0.054 A 
ATOM      3  C03 UNK A   1      46.782  27.614  40.114  1.00  0.00    -0.081 A 
ATOM      4  C04 UNK A   1      46.112  28.619  39.384  1.00  0.00    -0.082 A 
ATOM      5  C05 UNK A   1      44.752  28.885  39.629  1.00  0.00    -0.064 A 
ATOM      6  C06 UNK A   1      44.093  28.132  40.609  1.00  0.00     0.035 A 
ATOM      7  C10 UNK A   1      42.761  26.975  42.231  1.00  0.00     0.041 A 
ATOM      8  H02 UNK A   1      41.964  26.612  42.881  1.00  0.00     0.126 H 
ATOM      9  N01 UNK A   1      43.990  26.478  42.258  1.00  0.00    -0.253 NA
ATOM     10  S01 UNK A   1      42.418  28.259  41.108  1.00  0.00    -0.081 SA
ATOM     11  H08 UNK A   1      46.616  26.095  41.657  1.00  0.00     0.087 H 
ATOM     12  H09 UNK A   1      47.832  27.415  39.919  1.00  0.00     0.083 H 
ATOM     13  H10 UNK A   1      46.648  29.189  38.630  1.00  0.00     0.083 H 
ATOM     14  H11 UNK A   1      44.227  29.657  39.074  1.00  0.00     0.085 H 
ENDROOT
TORSDOF 0
ENDMDL
MODEL 6
REMARK VINA RESULT:      -4.8     33.060     33.462
REMARK  0 active torsions:
REMARK  status: ('A' for Active; 'I' for Inactive)
ROOT
ATOM      1  C01 UNK A   1      25.953  53.869  44.225  1.00  0.00     0.074 A 
ATOM      2  C02 UNK A   1      25.916  54.152  45.599  1.00  0.00    -0.054 A 
ATOM      3  C03 UNK A   1      24.909  53.566  46.391  1.00  0.00    -0.081 A 
ATOM      4  C04 UNK A   1      23.952  52.706  45.812  1.00  0.00    -0.082 A 
ATOM      5  C05 UNK A   1      23.994  52.425  44.434  1.00  0.00    -0.064 A 
ATOM      6  C06 UNK A   1      25.003  53.018  43.665  1.00  0.00     0.035 A 
ATOM      7  C10 UNK A   1      26.631  53.916  42.152  1.00  0.00     0.041 A 
ATOM      8  H02 UNK A   1      27.237  54.180  41.285  1.00  0.00     0.126 H 
ATOM      9  N01 UNK A   1      26.880  54.382  43.369  1.00  0.00    -0.253 NA
ATOM     10  S01 UNK A   1      25.281  52.839  41.943  1.00  0.00    -0.081 SA
ATOM     11  H08 UNK A   1      26.652  54.815  46.045  1.00  0.00     0.087 H 
ATOM     12  H09 UNK A   1      24.870  53.778  47.456  1.00  0.00     0.083 H 
ATOM     13  H10 UNK A   1      23.181  52.259  46.433  1.00  0.00     0.083 H 
ATOM     14  H11 UNK A   1      23.263  51.764  43.978  1.00  0.00     0.085 H 
ENDROOT
TORSDOF 0
ENDMDL
MODEL 7
REMARK VINA RESULT:      -4.7     29.384     29.854
REMARK  0 active torsions:
REMARK  status: ('A' for Active; 'I' for Inactive)
ROOT
ATOM      1  C01 UNK A   1      33.885  46.358  37.919  1.00  0.00     0.074 A 
ATOM      2  C02 UNK A   1      34.269  47.655  37.543  1.00  0.00    -0.054 A 
ATOM      3  C03 UNK A   1      34.187  48.694  38.490  1.00  0.00    -0.081 A 
ATOM      4  C04 UNK A   1      33.728  48.436  39.799  1.00  0.00    -0.082 A 
ATOM      5  C05 UNK A   1      33.345  47.133  40.171  1.00  0.00    -0.064 A 
ATOM      6  C06 UNK A   1      33.434  46.115  39.214  1.00  0.00     0.035 A 
ATOM      7  C10 UNK A   1      33.499  44.218  37.751  1.00  0.00     0.041 A 
ATOM      8  H02 UNK A   1      33.436  43.227  37.300  1.00  0.00     0.126 H 
ATOM      9  N01 UNK A   1      33.924  45.283  37.084  1.00  0.00    -0.253 NA
ATOM     10  S01 UNK A   1      33.026  44.422  39.413  1.00  0.00    -0.081 SA
ATOM     11  H08 UNK A   1      34.622  47.855  36.535  1.00  0.00     0.087 H 
ATOM     12  H09 UNK A   1      34.481  49.702  38.211  1.00  0.00     0.083 H 
ATOM     13  H10 UNK A   1      33.670  49.245  40.522  1.00  0.00     0.083 H 
ATOM     14  H11 UNK A   1      32.991  46.923  41.176  1.00  0.00     0.085 H 
ENDROOT
TORSDOF 0
ENDMDL
MODEL 8
REMARK VINA RESULT:      -4.6     29.440     29.857
REMARK  0 active torsions:
REMARK  status: ('A' for Active; 'I' for Inactive)
ROOT
ATOM      1  C01 UNK A   1      33.925  46.515  37.998  1.00  0.00     0.074 A 
ATOM      2  C02 UNK A   1      33.919  45.311  37.276  1.00  0.00    -0.054 A 
ATOM      3  C03 UNK A   1      33.555  44.120  37.934  1.00  0.00    -0.081 A 
ATOM      4  C04 UNK A   1      33.200  44.136  39.299  1.00  0.00    -0.082 A 
ATOM      5  C05 UNK A   1      33.206  45.346  40.019  1.00  0.00    -0.064 A 
ATOM      6  C06 UNK A   1      33.572  46.518  39.345  1.00  0.00     0.035 A 
ATOM      7  C10 UNK A   1      34.161  48.644  38.409  1.00  0.00     0.041 A 
ATOM      8  H02 UNK A   1      34.378  49.698  38.230  1.00  0.00     0.126 H 
ATOM      9  N01 UNK A   1      34.260  47.721  37.462  1.00  0.00    -0.253 NA
ATOM     10  S01 UNK A   1      33.663  48.142  39.998  1.00  0.00    -0.081 SA
ATOM     11  H08 UNK A   1      34.193  45.298  36.225  1.00  0.00     0.087 H 
ATOM     12  H09 UNK A   1      33.546  43.183  37.385  1.00  0.00     0.083 H 
ATOM     13  H10 UNK A   1      32.919  43.212  39.796  1.00  0.00     0.083 H 
ATOM     14  H11 UNK A   1      32.934  45.370  41.070  1.00  0.00     0.085 H 
ENDROOT
TORSDOF 0
ENDMDL
MODEL 9
REMARK VINA RESULT:      -4.6     32.790     33.641
REMARK  0 active torsions:
REMARK  status: ('A' for Active; 'I' for Inactive)
ROOT
ATOM      1  C01 UNK A   1      51.252  33.884  41.553  1.00  0.00     0.074 A 
ATOM      2  C02 UNK A   1      50.357  34.413  42.496  1.00  0.00    -0.054 A 
ATOM      3  C03 UNK A   1      49.369  35.321  42.067  1.00  0.00    -0.081 A 
ATOM      4  C04 UNK A   1      49.278  35.691  40.709  1.00  0.00    -0.082 A 
ATOM      5  C05 UNK A   1      50.177  35.156  39.767  1.00  0.00    -0.064 A 
ATOM      6  C06 UNK A   1      51.152  34.256  40.215  1.00  0.00     0.035 A 
ATOM      7  C10 UNK A   1      52.899  32.704  40.745  1.00  0.00     0.041 A 
ATOM      8  H02 UNK A   1      53.743  32.013  40.724  1.00  0.00     0.126 H 
ATOM      9  N01 UNK A   1      52.243  33.001  41.858  1.00  0.00    -0.253 NA
ATOM     10  S01 UNK A   1      52.383  33.451  39.261  1.00  0.00    -0.081 SA
ATOM     11  H08 UNK A   1      50.427  34.129  43.542  1.00  0.00     0.087 H 
ATOM     12  H09 UNK A   1      48.671  35.737  42.788  1.00  0.00     0.083 H 
ATOM     13  H10 UNK A   1      48.511  36.391  40.389  1.00  0.00     0.083 H 
ATOM     14  H11 UNK A   1      50.115  35.434  38.719  1.00  0.00     0.085 H 
ENDROOT
TORSDOF 0
ENDMDL
