MODEL 1
REMARK VINA RESULT:      -5.4      0.000      0.000
REMARK  0 active torsions:
REMARK  status: ('A' for Active; 'I' for Inactive)
ROOT
ATOM      1  C01 UNK A   1      54.714  67.379  37.999  1.00  0.00     0.105 A 
ATOM      2  C02 UNK A   1      55.277  66.165  38.410  1.00  0.00    -0.048 A 
ATOM      3  C03 UNK A   1      55.838  65.331  37.419  1.00  0.00    -0.080 A 
ATOM      4  C04 UNK A   1      55.825  65.722  36.060  1.00  0.00    -0.080 A 
ATOM      5  C05 UNK A   1      55.252  66.950  35.673  1.00  0.00    -0.048 A 
ATOM      6  C06 UNK A   1      54.702  67.759  36.675  1.00  0.00     0.105 A 
ATOM      7  C10 UNK A   1      53.699  69.405  37.874  1.00  0.00     0.115 A 
ATOM      8  H01 UNK A   1      52.609  69.527  37.920  1.00  0.00     0.118 H 
ATOM      9  H02 UNK A   1      54.206  70.340  38.138  1.00  0.00     0.118 H 
ATOM     10  O01 UNK A   1      54.121  68.336  38.765  1.00  0.00    -0.323 OA
ATOM     11  O02 UNK A   1      54.100  68.974  36.545  1.00  0.00    -0.323 OA
ATOM     12  H08 UNK A   1      55.281  65.877  39.457  1.00  0.00     0.087 H 
ATOM     13  H09 UNK A   1      56.284  64.381  37.704  1.00  0.00     0.083 H 
ATOM     14  H10 UNK A   1      56.260  65.070  35.307  1.00  0.00     0.083 H 
ATOM     15  H11 UNK A   1      55.235  67.262  34.633  1.00  0.00     0.087 H 
ENDROOT
TORSDOF 0
ENDMDL
MODEL 2
REMARK VINA RESULT:      -5.1     39.489     40.406
REMARK  0 active torsions:
REMARK  status: ('A' for Active; 'I' for Inactive)
ROOT
ATOM      1  C01 UNK A   1      44.090  28.163  40.516  1.00  0.00     0.105 A 
ATOM      2  C02 UNK A   1      44.587  27.126  41.314  1.00  0.00    -0.048 A 
ATOM      3  C03 UNK A   1      45.951  26.791  41.182  1.00  0.00    -0.080 A 
ATOM      4  C04 UNK A   1      46.778  27.488  40.270  1.00  0.00    -0.080 A 
ATOM      5  C05 UNK A   1      46.252  28.528  39.478  1.00  0.00    -0.048 A 
ATOM      6  C06 UNK A   1      44.895  28.842  39.627  1.00  0.00     0.105 A 
ATOM      7  C10 UNK A   1      42.809  29.727  39.484  1.00  0.00     0.115 A 
ATOM      8  H01 UNK A   1      42.115  29.484  38.669  1.00  0.00     0.118 H 
ATOM      9  H02 UNK A   1      42.534  30.676  39.959  1.00  0.00     0.118 H 
ATOM     10  O01 UNK A   1      42.822  28.658  40.469  1.00  0.00    -0.323 OA
ATOM     11  O02 UNK A   1      44.171  29.795  38.978  1.00  0.00    -0.323 OA
ATOM     12  H08 UNK A   1      43.943  26.599  42.011  1.00  0.00     0.087 H 
ATOM     13  H09 UNK A   1      46.371  25.991  41.787  1.00  0.00     0.083 H 
ATOM     14  H10 UNK A   1      47.826  27.219  40.178  1.00  0.00     0.083 H 
ATOM     15  H11 UNK A   1      46.874  29.071  38.773  1.00  0.00     0.087 H 
ENDROOT
TORSDOF 0
ENDMDL
MODEL 3
REMARK VINA RESULT:      -5.0     39.526     40.462
REMARK  0 active torsions:
REMARK  status: ('A' for Active; 'I' for Inactive)
ROOT
ATOM      1  C01 UNK A   1      44.904  28.819  39.642  1.00  0.00     0.105 A 
ATOM      2  C02 UNK A   1      46.258  28.517  39.457  1.00  0.00    -0.048 A 
ATOM      3  C03 UNK A   1      46.812  27.475  40.231  1.00  0.00    -0.080 A 
ATOM      4  C04 UNK A   1      46.014  26.768  41.160  1.00  0.00    -0.080 A 
ATOM      5  C05 UNK A   1      44.652  27.092  41.327  1.00  0.00    -0.048 A 
ATOM      6  C06 UNK A   1      44.126  28.129  40.547  1.00  0.00     0.105 A 
ATOM      7  C10 UNK A   1      42.810  29.690  39.554  1.00  0.00     0.115 A 
ATOM      8  H01 UNK A   1      42.539  30.635  40.041  1.00  0.00     0.118 H 
ATOM      9  H02 UNK A   1      42.098  29.444  38.756  1.00  0.00     0.118 H 
ATOM     10  O01 UNK A   1      44.158  29.771  39.016  1.00  0.00    -0.323 OA
ATOM     11  O02 UNK A   1      42.855  28.616  40.533  1.00  0.00    -0.323 OA
ATOM     12  H08 UNK A   1      46.860  29.067  38.740  1.00  0.00     0.087 H 
ATOM     13  H09 UNK A   1      47.861  27.215  40.112  1.00  0.00     0.083 H 
ATOM     14  H10 UNK A   1      46.453  25.969  41.750  1.00  0.00     0.083 H 
ATOM     15  H11 UNK A   1      44.028  26.558  42.037  1.00  0.00     0.087 H 
ENDROOT
TORSDOF 0
ENDMDL
MODEL 4
REMARK VINA RESULT:      -5.0     32.718     33.566
REMARK  0 active torsions:
REMARK  status: ('A' for Active; 'I' for Inactive)
ROOT
ATOM      1  C01 UNK A   1      49.773  34.284  42.585  1.00  0.00     0.105 A 
ATOM      2  C02 UNK A   1      48.430  34.645  42.747  1.00  0.00    -0.048 A 
ATOM      3  C03 UNK A   1      47.821  35.393  41.718  1.00  0.00    -0.080 A 
ATOM      4  C04 UNK A   1      48.554  35.759  40.566  1.00  0.00    -0.080 A 
ATOM      5  C05 UNK A   1      49.905  35.383  40.426  1.00  0.00    -0.048 A 
ATOM      6  C06 UNK A   1      50.487  34.640  41.461  1.00  0.00     0.105 A 
ATOM      7  C10 UNK A   1      51.876  33.460  42.815  1.00  0.00     0.115 A 
ATOM      8  H01 UNK A   1      52.634  33.937  43.448  1.00  0.00     0.118 H 
ATOM      9  H02 UNK A   1      52.123  32.406  42.637  1.00  0.00     0.118 H 
ATOM     10  O01 UNK A   1      50.564  33.570  43.433  1.00  0.00    -0.323 OA
ATOM     11  O02 UNK A   1      51.762  34.169  41.550  1.00  0.00    -0.323 OA
ATOM     12  H08 UNK A   1      47.879  34.357  43.637  1.00  0.00     0.087 H 
ATOM     13  H09 UNK A   1      46.780  35.690  41.812  1.00  0.00     0.083 H 
ATOM     14  H10 UNK A   1      48.072  36.336  39.781  1.00  0.00     0.083 H 
ATOM     15  H11 UNK A   1      50.480  35.657  39.547  1.00  0.00     0.087 H 
ENDROOT
TORSDOF 0
ENDMDL
MODEL 5
REMARK VINA RESULT:      -4.9     30.760     31.741
REMARK  0 active torsions:
REMARK  status: ('A' for Active; 'I' for Inactive)
ROOT
ATOM      1  C01 UNK A   1      41.505  39.193  41.469  1.00  0.00     0.105 A 
ATOM      2  C02 UNK A   1      40.131  39.263  41.208  1.00  0.00    -0.048 A 
ATOM      3  C03 UNK A   1      39.641  38.573  40.079  1.00  0.00    -0.080 A 
ATOM      4  C04 UNK A   1      40.518  37.839  39.248  1.00  0.00    -0.080 A 
ATOM      5  C05 UNK A   1      41.897  37.785  39.534  1.00  0.00    -0.048 A 
ATOM      6  C06 UNK A   1      42.360  38.478  40.660  1.00  0.00     0.105 A 
ATOM      7  C10 UNK A   1      43.597  39.401  42.324  1.00  0.00     0.115 A 
ATOM      8  H01 UNK A   1      44.211  40.299  42.180  1.00  0.00     0.118 H 
ATOM      9  H02 UNK A   1      43.942  38.829  43.194  1.00  0.00     0.118 H 
ATOM     10  O01 UNK A   1      42.200  39.770  42.488  1.00  0.00    -0.323 OA
ATOM     11  O02 UNK A   1      43.634  38.571  41.131  1.00  0.00    -0.323 OA
ATOM     12  H08 UNK A   1      39.468  39.831  41.854  1.00  0.00     0.087 H 
ATOM     13  H09 UNK A   1      38.579  38.607  39.847  1.00  0.00     0.083 H 
ATOM     14  H10 UNK A   1      40.127  37.313  38.382  1.00  0.00     0.083 H 
ATOM     15  H11 UNK A   1      42.583  37.225  38.905  1.00  0.00     0.087 H 
ENDROOT
TORSDOF 0
ENDMDL
MODEL 6
REMARK VINA RESULT:      -4.9     30.722     31.735
REMARK  0 active torsions:
REMARK  status: ('A' for Active; 'I' for Inactive)
ROOT
ATOM      1  C01 UNK A   1      42.472  38.420  40.642  1.00  0.00     0.105 A 
ATOM      2  C02 UNK A   1      41.952  37.759  39.522  1.00  0.00    -0.048 A 
ATOM      3  C03 UNK A   1      40.573  37.894  39.260  1.00  0.00    -0.080 A 
ATOM      4  C04 UNK A   1      39.753  38.675  40.107  1.00  0.00    -0.080 A 
ATOM      5  C05 UNK A   1      40.301  39.331  41.228  1.00  0.00    -0.048 A 
ATOM      6  C06 UNK A   1      41.673  39.181  41.467  1.00  0.00     0.105 A 
ATOM      7  C10 UNK A   1      43.788  39.264  42.286  1.00  0.00     0.115 A 
ATOM      8  H01 UNK A   1      44.115  38.670  43.149  1.00  0.00     0.118 H 
ATOM      9  H02 UNK A   1      44.450  40.125  42.133  1.00  0.00     0.118 H 
ATOM     10  O01 UNK A   1      43.757  38.437  41.091  1.00  0.00    -0.323 OA
ATOM     11  O02 UNK A   1      42.418  39.712  42.476  1.00  0.00    -0.323 OA
ATOM     12  H08 UNK A   1      42.592  37.162  38.879  1.00  0.00     0.087 H 
ATOM     13  H09 UNK A   1      40.137  37.394  38.398  1.00  0.00     0.083 H 
ATOM     14  H10 UNK A   1      38.692  38.770  39.893  1.00  0.00     0.083 H 
ATOM     15  H11 UNK A   1      39.684  39.933  41.887  1.00  0.00     0.087 H 
ENDROOT
TORSDOF 0
ENDMDL
MODEL 7
REMARK VINA RESULT:      -4.8     30.846     31.556
REMARK  0 active torsions:
REMARK  status: ('A' for Active; 'I' for Inactive)
ROOT
ATOM      1  C01 UNK A   1      41.839  38.493  40.432  1.00  0.00     0.105 A 
ATOM      2  C02 UNK A   1      43.166  38.045  40.451  1.00  0.00    -0.048 A 
ATOM      3  C03 UNK A   1      44.006  38.521  41.479  1.00  0.00    -0.080 A 
ATOM      4  C04 UNK A   1      43.512  39.419  42.453  1.00  0.00    -0.080 A 
ATOM      5  C05 UNK A   1      42.172  39.854  42.412  1.00  0.00    -0.048 A 
ATOM      6  C06 UNK A   1      41.358  39.368  41.382  1.00  0.00     0.105 A 
ATOM      7  C10 UNK A   1      39.657  38.894  39.955  1.00  0.00     0.115 A 
ATOM      8  H01 UNK A   1      39.340  39.581  39.160  1.00  0.00     0.118 H 
ATOM      9  H02 UNK A   1      38.856  38.187  40.201  1.00  0.00     0.118 H 
ATOM     10  O01 UNK A   1      40.854  38.175  39.548  1.00  0.00    -0.323 OA
ATOM     11  O02 UNK A   1      40.046  39.643  41.138  1.00  0.00    -0.323 OA
ATOM     12  H08 UNK A   1      43.533  37.355  39.697  1.00  0.00     0.087 H 
ATOM     13  H09 UNK A   1      45.042  38.193  41.523  1.00  0.00     0.083 H 
ATOM     14  H10 UNK A   1      44.170  39.777  43.240  1.00  0.00     0.083 H 
ATOM     15  H11 UNK A   1      41.779  40.544  43.153  1.00  0.00     0.087 H 
ENDROOT
TORSDOF 0
ENDMDL
MODEL 8
REMARK VINA RESULT:      -4.8     40.004     40.982
REMARK  0 active torsions:
REMARK  status: ('A' for Active; 'I' for Inactive)
ROOT
ATOM      1  C01 UNK A   1      43.995  28.351  40.438  1.00  0.00     0.105 A 
ATOM      2  C02 UNK A   1      44.828  28.945  39.482  1.00  0.00    -0.048 A 
ATOM      3  C03 UNK A   1      46.189  28.573  39.473  1.00  0.00    -0.080 A 
ATOM      4  C04 UNK A   1      46.682  27.630  40.404  1.00  0.00    -0.080 A 
ATOM      5  C05 UNK A   1      45.822  27.046  41.356  1.00  0.00    -0.048 A 
ATOM      6  C06 UNK A   1      44.476  27.432  41.345  1.00  0.00     0.105 A 
ATOM      7  C10 UNK A   1      42.258  27.702  41.747  1.00  0.00     0.115 A 
ATOM      8  H01 UNK A   1      41.874  28.316  42.571  1.00  0.00     0.118 H 
ATOM      9  H02 UNK A   1      41.503  26.979  41.415  1.00  0.00     0.118 H 
ATOM     10  O01 UNK A   1      42.663  28.550  40.637  1.00  0.00    -0.323 OA
ATOM     11  O02 UNK A   1      43.468  27.010  42.158  1.00  0.00    -0.323 OA
ATOM     12  H08 UNK A   1      44.436  29.668  38.773  1.00  0.00     0.087 H 
ATOM     13  H09 UNK A   1      46.863  29.016  38.744  1.00  0.00     0.083 H 
ATOM     14  H10 UNK A   1      47.733  27.353  40.386  1.00  0.00     0.083 H 
ATOM     15  H11 UNK A   1      46.187  26.321  42.077  1.00  0.00     0.087 H 
ENDROOT
TORSDOF 0
ENDMDL
MODEL 9
REMARK VINA RESULT:      -4.8     30.728     31.620
REMARK  0 active torsions:
REMARK  status: ('A' for Active; 'I' for Inactive)
ROOT
ATOM      1  C01 UNK A   1      41.648  38.958  40.686  1.00  0.00     0.105 A 
ATOM      2  C02 UNK A   1      41.699  39.944  41.678  1.00  0.00    -0.048 A 
ATOM      3  C03 UNK A   1      42.878  40.043  42.447  1.00  0.00    -0.080 A 
ATOM      4  C04 UNK A   1      43.965  39.169  42.212  1.00  0.00    -0.080 A 
ATOM      5  C05 UNK A   1      43.888  38.185  41.206  1.00  0.00    -0.048 A 
ATOM      6  C06 UNK A   1      42.707  38.106  40.457  1.00  0.00     0.105 A 
ATOM      7  C10 UNK A   1      41.059  37.567  38.991  1.00  0.00     0.115 A 
ATOM      8  H01 UNK A   1      40.396  36.705  39.134  1.00  0.00     0.118 H 
ATOM      9  H02 UNK A   1      41.079  37.874  37.939  1.00  0.00     0.118 H 
ATOM     10  O01 UNK A   1      40.629  38.675  39.829  1.00  0.00    -0.323 OA
ATOM     11  O02 UNK A   1      42.403  37.247  39.445  1.00  0.00    -0.323 OA
ATOM     12  H08 UNK A   1      40.858  40.609  41.849  1.00  0.00     0.087 H 
ATOM     13  H09 UNK A   1      42.952  40.798  43.226  1.00  0.00     0.083 H 
ATOM     14  H10 UNK A   1      44.867  39.256  42.812  1.00  0.00     0.083 H 
ATOM     15  H11 UNK A   1      44.714  37.507  41.015  1.00  0.00     0.087 H 
ENDROOT
TORSDOF 0
ENDMDL
