MODEL 1
REMARK VINA RESULT:      -6.1      0.000      0.000
REMARK  1 active torsions:
REMARK  status: ('A' for Active; 'I' for Inactive)
REMARK    1  A    between atoms: C05_7  and  N01_20 
ROOT
ATOM      1  C08 UNK A   1      52.468  32.556  41.382  1.00  0.00     0.020 C 
ATOM      2  C09 UNK A   1      53.956  32.247  41.640  1.00  0.00     0.126 C 
ATOM      3  C11 UNK A   1      53.848  33.241  43.838  1.00  0.00     0.126 C 
ATOM      4  C12 UNK A   1      52.366  33.624  43.634  1.00  0.00     0.020 C 
ATOM      5  H02 UNK A   1      54.566  33.079  41.265  1.00  0.00     0.082 H 
ATOM      6  H03 UNK A   1      54.233  31.345  41.082  1.00  0.00     0.082 H 
ATOM      7  H04 UNK A   1      55.210  31.850  43.210  1.00  0.00     0.316 HD
ATOM      8  H11 UNK A   1      51.738  32.904  44.174  1.00  0.00     0.066 H 
ATOM      9  H13 UNK A   1      52.394  32.783  40.314  1.00  0.00     0.066 H 
ATOM     10  H14 UNK A   1      51.885  31.648  41.586  1.00  0.00     0.066 H 
ATOM     11  H15 UNK A   1      52.247  34.603  44.109  1.00  0.00     0.066 H 
ATOM     12  H16 UNK A   1      54.478  34.084  43.527  1.00  0.00     0.082 H 
ATOM     13  H17 UNK A   1      54.028  33.063  44.905  1.00  0.00     0.082 H 
ATOM     14  N01 UNK A   1      51.927  33.673  42.209  1.00  0.00    -0.378 N 
ATOM     15  N02 UNK A   1      54.222  32.052  43.067  1.00  0.00     0.086 N 
ENDROOT
BRANCH  14  16
ATOM     16  C05 UNK A   1      50.729  34.335  41.841  1.00  0.00     0.030 A 
ATOM     17  C04 UNK A   1      50.595  35.001  40.597  1.00  0.00    -0.057 A 
ATOM     18  C03 UNK A   1      49.392  35.621  40.219  1.00  0.00    -0.081 A 
ATOM     19  H10 UNK A   1      51.414  35.052  39.891  1.00  0.00     0.086 H 
ATOM     20  C02 UNK A   1      48.285  35.596  41.078  1.00  0.00    -0.083 A 
ATOM     21  H09 UNK A   1      49.316  36.116  39.256  1.00  0.00     0.083 H 
ATOM     22  C01 UNK A   1      48.394  34.957  42.319  1.00  0.00    -0.081 A 
ATOM     23  H08 UNK A   1      47.351  36.067  40.783  1.00  0.00     0.083 H 
ATOM     24  C06 UNK A   1      49.597  34.338  42.695  1.00  0.00    -0.057 A 
ATOM     25  H07 UNK A   1      47.540  34.937  42.992  1.00  0.00     0.083 H 
ATOM     26  H12 UNK A   1      49.613  33.857  43.663  1.00  0.00     0.086 H 
ENDBRANCH  14  16
TORSDOF 1
ENDMDL
MODEL 2
REMARK VINA RESULT:      -5.8      2.617      3.634
REMARK  1 active torsions:
REMARK  status: ('A' for Active; 'I' for Inactive)
REMARK    1  A    between atoms: C05_7  and  N01_20 
ROOT
ATOM      1  C08 UNK A   1      51.489  34.725  37.879  1.00  0.00     0.020 C 
ATOM      2  C09 UNK A   1      52.724  34.795  36.958  1.00  0.00     0.126 C 
ATOM      3  C11 UNK A   1      53.967  33.315  38.404  1.00  0.00     0.126 C 
ATOM      4  C12 UNK A   1      52.787  33.231  39.397  1.00  0.00     0.020 C 
ATOM      5  H02 UNK A   1      53.345  35.650  37.255  1.00  0.00     0.082 H 
ATOM      6  H03 UNK A   1      52.388  34.962  35.927  1.00  0.00     0.082 H 
ATOM      7  H04 UNK A   1      54.325  33.639  36.416  1.00  0.00     0.316 HD
ATOM      8  H11 UNK A   1      52.264  32.279  39.244  1.00  0.00     0.066 H 
ATOM      9  H13 UNK A   1      51.026  35.715  37.830  1.00  0.00     0.066 H 
ATOM     10  H14 UNK A   1      50.786  33.992  37.461  1.00  0.00     0.066 H 
ATOM     11  H15 UNK A   1      53.242  33.215  40.392  1.00  0.00     0.066 H 
ATOM     12  H16 UNK A   1      54.637  34.125  38.717  1.00  0.00     0.082 H 
ATOM     13  H17 UNK A   1      54.533  32.376  38.442  1.00  0.00     0.082 H 
ATOM     14  N01 UNK A   1      51.802  34.346  39.287  1.00  0.00    -0.378 N 
ATOM     15  N02 UNK A   1      53.516  33.566  37.032  1.00  0.00     0.086 N 
ENDROOT
BRANCH  14  16
ATOM     16  C05 UNK A   1      50.879  34.605  40.331  1.00  0.00     0.030 A 
ATOM     17  C04 UNK A   1      49.669  35.308  40.102  1.00  0.00    -0.057 A 
ATOM     18  C03 UNK A   1      48.738  35.525  41.132  1.00  0.00    -0.081 A 
ATOM     19  H10 UNK A   1      49.417  35.697  39.124  1.00  0.00     0.086 H 
ATOM     20  C02 UNK A   1      48.991  35.050  42.425  1.00  0.00    -0.083 A 
ATOM     21  H09 UNK A   1      47.816  36.059  40.924  1.00  0.00     0.083 H 
ATOM     22  C01 UNK A   1      50.186  34.365  42.683  1.00  0.00    -0.081 A 
ATOM     23  H08 UNK A   1      48.268  35.210  43.220  1.00  0.00     0.083 H 
ATOM     24  C06 UNK A   1      51.115  34.147  41.652  1.00  0.00    -0.057 A 
ATOM     25  H07 UNK A   1      50.391  33.996  43.685  1.00  0.00     0.083 H 
ATOM     26  H12 UNK A   1      52.013  33.607  41.915  1.00  0.00     0.086 H 
ENDBRANCH  14  16
TORSDOF 1
ENDMDL
MODEL 3
REMARK VINA RESULT:      -5.6      2.877      4.007
REMARK  1 active torsions:
REMARK  status: ('A' for Active; 'I' for Inactive)
REMARK    1  A    between atoms: C05_7  and  N01_20 
ROOT
ATOM      1  C08 UNK A   1      53.111  33.051  39.176  1.00  0.00     0.020 C 
ATOM      2  C09 UNK A   1      53.618  32.331  37.910  1.00  0.00     0.126 C 
ATOM      3  C11 UNK A   1      52.567  33.969  36.481  1.00  0.00     0.126 C 
ATOM      4  C12 UNK A   1      51.987  34.718  37.700  1.00  0.00     0.020 C 
ATOM      5  H02 UNK A   1      52.888  31.566  37.615  1.00  0.00     0.082 H 
ATOM      6  H03 UNK A   1      54.563  31.826  38.144  1.00  0.00     0.082 H 
ATOM      7  H04 UNK A   1      54.149  32.771  35.981  1.00  0.00     0.316 HD
ATOM      8  H11 UNK A   1      52.600  35.607  37.892  1.00  0.00     0.066 H 
ATOM      9  H13 UNK A   1      52.901  32.259  39.902  1.00  0.00     0.066 H 
ATOM     10  H14 UNK A   1      53.924  33.675  39.569  1.00  0.00     0.066 H 
ATOM     11  H15 UNK A   1      50.991  35.050  37.394  1.00  0.00     0.066 H 
ATOM     12  H16 UNK A   1      51.828  33.240  36.128  1.00  0.00     0.082 H 
ATOM     13  H17 UNK A   1      52.744  34.687  35.671  1.00  0.00     0.082 H 
ATOM     14  N01 UNK A   1      51.911  33.906  38.949  1.00  0.00    -0.378 N 
ATOM     15  N02 UNK A   1      53.815  33.271  36.804  1.00  0.00     0.086 N 
ENDROOT
BRANCH  14  16
ATOM     16  C05 UNK A   1      51.097  34.319  40.034  1.00  0.00     0.030 A 
ATOM     17  C04 UNK A   1      51.379  33.932  41.369  1.00  0.00    -0.057 A 
ATOM     18  C03 UNK A   1      50.594  34.378  42.446  1.00  0.00    -0.081 A 
ATOM     19  H10 UNK A   1      52.213  33.284  41.607  1.00  0.00     0.086 H 
ATOM     20  C02 UNK A   1      49.499  35.222  42.220  1.00  0.00    -0.083 A 
ATOM     21  H09 UNK A   1      50.840  34.073  43.458  1.00  0.00     0.083 H 
ATOM     22  C01 UNK A   1      49.189  35.608  40.910  1.00  0.00    -0.081 A 
ATOM     23  H08 UNK A   1      48.897  35.575  43.052  1.00  0.00     0.083 H 
ATOM     24  C06 UNK A   1      49.975  35.162  39.834  1.00  0.00    -0.057 A 
ATOM     25  H07 UNK A   1      48.339  36.260  40.726  1.00  0.00     0.083 H 
ATOM     26  H12 UNK A   1      49.687  35.501  38.849  1.00  0.00     0.086 H 
ENDBRANCH  14  16
TORSDOF 1
ENDMDL
MODEL 4
REMARK VINA RESULT:      -5.6      9.350     10.862
REMARK  1 active torsions:
REMARK  status: ('A' for Active; 'I' for Inactive)
REMARK    1  A    between atoms: C05_7  and  N01_20 
ROOT
ATOM      1  C08 UNK A   1      42.803  28.266  43.100  1.00  0.00     0.020 C 
ATOM      2  C09 UNK A   1      41.342  28.468  43.550  1.00  0.00     0.126 C 
ATOM      3  C11 UNK A   1      40.527  27.098  41.736  1.00  0.00     0.126 C 
ATOM      4  C12 UNK A   1      41.960  26.889  41.199  1.00  0.00     0.020 C 
ATOM      5  H02 UNK A   1      40.942  29.375  43.079  1.00  0.00     0.082 H 
ATOM      6  H03 UNK A   1      41.322  28.613  44.637  1.00  0.00     0.082 H 
ATOM      7  H04 UNK A   1      39.549  27.479  43.492  1.00  0.00     0.316 HD
ATOM      8  H11 UNK A   1      42.307  25.892  41.499  1.00  0.00     0.066 H 
ATOM      9  H13 UNK A   1      43.314  29.208  43.325  1.00  0.00     0.066 H 
ATOM     10  H14 UNK A   1      43.249  27.473  43.715  1.00  0.00     0.066 H 
ATOM     11  H15 UNK A   1      41.870  26.905  40.109  1.00  0.00     0.066 H 
ATOM     12  H16 UNK A   1      40.083  27.966  41.232  1.00  0.00     0.082 H 
ATOM     13  H17 UNK A   1      39.920  26.219  41.488  1.00  0.00     0.082 H 
ATOM     14  N01 UNK A   1      42.951  27.904  41.662  1.00  0.00    -0.378 N 
ATOM     15  N02 UNK A   1      40.508  27.321  43.185  1.00  0.00     0.086 N 
ENDROOT
BRANCH  14  16
ATOM     16  C05 UNK A   1      44.194  28.059  40.997  1.00  0.00     0.030 A 
ATOM     17  C04 UNK A   1      45.374  27.426  41.462  1.00  0.00    -0.057 A 
ATOM     18  C03 UNK A   1      46.594  27.549  40.777  1.00  0.00    -0.081 A 
ATOM     19  H10 UNK A   1      45.375  26.819  42.359  1.00  0.00     0.086 H 
ATOM     20  C02 UNK A   1      46.673  28.314  39.606  1.00  0.00    -0.083 A 
ATOM     21  H09 UNK A   1      47.480  27.044  41.151  1.00  0.00     0.083 H 
ATOM     22  C01 UNK A   1      45.525  28.963  39.132  1.00  0.00    -0.081 A 
ATOM     23  H08 UNK A   1      47.613  28.403  39.070  1.00  0.00     0.083 H 
ATOM     24  C06 UNK A   1      44.306  28.838  39.818  1.00  0.00    -0.057 A 
ATOM     25  H07 UNK A   1      45.579  29.562  38.226  1.00  0.00     0.083 H 
ATOM     26  H12 UNK A   1      43.457  29.358  39.397  1.00  0.00     0.086 H 
ENDBRANCH  14  16
TORSDOF 1
ENDMDL
MODEL 5
REMARK VINA RESULT:      -5.6      9.322     10.586
REMARK  1 active torsions:
REMARK  status: ('A' for Active; 'I' for Inactive)
REMARK    1  A    between atoms: C05_7  and  N01_20 
ROOT
ATOM      1  C08 UNK A   1      43.181  26.247  43.143  1.00  0.00     0.020 C 
ATOM      2  C09 UNK A   1      42.479  26.204  44.515  1.00  0.00     0.126 C 
ATOM      3  C11 UNK A   1      41.370  28.305  44.085  1.00  0.00     0.126 C 
ATOM      4  C12 UNK A   1      42.072  28.440  42.716  1.00  0.00     0.020 C 
ATOM      5  H02 UNK A   1      43.129  26.671  45.267  1.00  0.00     0.082 H 
ATOM      6  H03 UNK A   1      42.326  25.157  44.802  1.00  0.00     0.082 H 
ATOM      7  H04 UNK A   1      40.750  26.861  45.396  1.00  0.00     0.316 HD
ATOM      8  H11 UNK A   1      41.363  28.160  41.927  1.00  0.00     0.066 H 
ATOM      9  H13 UNK A   1      44.164  25.792  43.300  1.00  0.00     0.066 H 
ATOM     10  H14 UNK A   1      42.615  25.619  42.444  1.00  0.00     0.066 H 
ATOM     11  H15 UNK A   1      42.301  29.504  42.608  1.00  0.00     0.066 H 
ATOM     12  H16 UNK A   1      41.972  28.820  44.845  1.00  0.00     0.082 H 
ATOM     13  H17 UNK A   1      40.393  28.802  44.037  1.00  0.00     0.082 H 
ATOM     14  N01 UNK A   1      43.307  27.617  42.568  1.00  0.00    -0.378 N 
ATOM     15  N02 UNK A   1      41.193  26.904  44.479  1.00  0.00     0.086 N 
ENDROOT
BRANCH  14  16
ATOM     16  C05 UNK A   1      44.241  27.889  41.536  1.00  0.00     0.030 A 
ATOM     17  C04 UNK A   1      43.891  28.655  40.395  1.00  0.00    -0.057 A 
ATOM     18  C03 UNK A   1      44.831  28.957  39.395  1.00  0.00    -0.081 A 
ATOM     19  H10 UNK A   1      42.888  29.038  40.257  1.00  0.00     0.086 H 
ATOM     20  C02 UNK A   1      46.150  28.499  39.505  1.00  0.00    -0.083 A 
ATOM     21  H09 UNK A   1      44.536  29.553  38.537  1.00  0.00     0.083 H 
ATOM     22  C01 UNK A   1      46.519  27.729  40.614  1.00  0.00    -0.081 A 
ATOM     23  H08 UNK A   1      46.880  28.740  38.737  1.00  0.00     0.083 H 
ATOM     24  C06 UNK A   1      45.579  27.428  41.613  1.00  0.00    -0.057 A 
ATOM     25  H07 UNK A   1      47.541  27.367  40.704  1.00  0.00     0.083 H 
ATOM     26  H12 UNK A   1      45.929  26.835  42.447  1.00  0.00     0.086 H 
ENDBRANCH  14  16
TORSDOF 1
ENDMDL
MODEL 6
REMARK VINA RESULT:      -5.5     30.280     32.390
REMARK  1 active torsions:
REMARK  status: ('A' for Active; 'I' for Inactive)
REMARK    1  A    between atoms: C05_7  and  N01_20 
ROOT
ATOM      1  C08 UNK A   1      26.250  52.026  42.057  1.00  0.00     0.020 C 
ATOM      2  C09 UNK A   1      26.447  50.724  41.253  1.00  0.00     0.126 C 
ATOM      3  C11 UNK A   1      24.121  50.132  41.523  1.00  0.00     0.126 C 
ATOM      4  C12 UNK A   1      23.859  51.393  42.375  1.00  0.00     0.020 C 
ATOM      5  H02 UNK A   1      26.757  49.923  41.937  1.00  0.00     0.082 H 
ATOM      6  H03 UNK A   1      27.249  50.876  40.522  1.00  0.00     0.082 H 
ATOM      7  H04 UNK A   1      25.371  49.468  40.045  1.00  0.00     0.316 HD
ATOM      8  H11 UNK A   1      23.363  52.145  41.749  1.00  0.00     0.066 H 
ATOM      9  H13 UNK A   1      27.185  52.177  42.607  1.00  0.00     0.066 H 
ATOM     10  H14 UNK A   1      26.126  52.855  41.349  1.00  0.00     0.066 H 
ATOM     11  H15 UNK A   1      23.156  51.080  43.153  1.00  0.00     0.066 H 
ATOM     12  H16 UNK A   1      24.374  49.299  42.191  1.00  0.00     0.082 H 
ATOM     13  H17 UNK A   1      23.203  49.865  40.986  1.00  0.00     0.082 H 
ATOM     14  N01 UNK A   1      25.080  51.999  42.980  1.00  0.00    -0.378 N 
ATOM     15  N02 UNK A   1      25.215  50.330  40.567  1.00  0.00     0.086 N 
ENDROOT
BRANCH  14  16
ATOM     16  C05 UNK A   1      24.977  52.924  44.050  1.00  0.00     0.030 A 
ATOM     17  C04 UNK A   1      24.304  52.600  45.255  1.00  0.00    -0.057 A 
ATOM     18  C03 UNK A   1      24.240  53.505  46.329  1.00  0.00    -0.081 A 
ATOM     19  H10 UNK A   1      23.820  51.642  45.394  1.00  0.00     0.086 H 
ATOM     20  C02 UNK A   1      24.845  54.765  46.227  1.00  0.00    -0.083 A 
ATOM     21  H09 UNK A   1      23.726  53.226  47.243  1.00  0.00     0.083 H 
ATOM     22  C01 UNK A   1      25.504  55.116  45.043  1.00  0.00    -0.081 A 
ATOM     23  H08 UNK A   1      24.805  55.462  47.060  1.00  0.00     0.083 H 
ATOM     24  C06 UNK A   1      25.568  54.210  43.971  1.00  0.00    -0.057 A 
ATOM     25  H07 UNK A   1      25.974  56.093  44.955  1.00  0.00     0.083 H 
ATOM     26  H12 UNK A   1      26.097  54.540  43.087  1.00  0.00     0.086 H 
ENDBRANCH  14  16
TORSDOF 1
ENDMDL
MODEL 7
REMARK VINA RESULT:      -5.1      2.108      2.839
REMARK  1 active torsions:
REMARK  status: ('A' for Active; 'I' for Inactive)
REMARK    1  A    between atoms: C05_7  and  N01_20 
ROOT
ATOM      1  C08 UNK A   1      52.691  31.366  39.521  1.00  0.00     0.020 C 
ATOM      2  C09 UNK A   1      53.872  30.486  39.063  1.00  0.00     0.126 C 
ATOM      3  C11 UNK A   1      54.352  29.835  41.338  1.00  0.00     0.126 C 
ATOM      4  C12 UNK A   1      53.215  30.730  41.875  1.00  0.00     0.020 C 
ATOM      5  H02 UNK A   1      54.781  31.099  39.018  1.00  0.00     0.082 H 
ATOM      6  H03 UNK A   1      53.665  30.113  38.053  1.00  0.00     0.082 H 
ATOM      7  H04 UNK A   1      54.870  28.797  39.651  1.00  0.00     0.316 HD
ATOM      8  H11 UNK A   1      52.351  30.097  42.113  1.00  0.00     0.066 H 
ATOM      9  H13 UNK A   1      52.679  32.222  38.840  1.00  0.00     0.066 H 
ATOM     10  H14 UNK A   1      51.762  30.799  39.382  1.00  0.00     0.066 H 
ATOM     11  H15 UNK A   1      53.593  31.156  42.809  1.00  0.00     0.066 H 
ATOM     12  H16 UNK A   1      55.288  30.408  41.343  1.00  0.00     0.082 H 
ATOM     13  H17 UNK A   1      54.481  28.977  42.009  1.00  0.00     0.082 H 
ATOM     14  N01 UNK A   1      52.780  31.809  40.942  1.00  0.00    -0.378 N 
ATOM     15  N02 UNK A   1      54.086  29.361  39.976  1.00  0.00     0.086 N 
ENDROOT
BRANCH  14  16
ATOM     16  C05 UNK A   1      52.015  32.908  41.409  1.00  0.00     0.030 A 
ATOM     17  C04 UNK A   1      51.514  33.898  40.528  1.00  0.00    -0.057 A 
ATOM     18  C03 UNK A   1      50.721  34.962  40.990  1.00  0.00    -0.081 A 
ATOM     19  H10 UNK A   1      51.719  33.866  39.465  1.00  0.00     0.086 H 
ATOM     20  C02 UNK A   1      50.409  35.071  42.351  1.00  0.00    -0.083 A 
ATOM     21  H09 UNK A   1      50.344  35.701  40.289  1.00  0.00     0.083 H 
ATOM     22  C01 UNK A   1      50.904  34.115  43.247  1.00  0.00    -0.081 A 
ATOM     23  H08 UNK A   1      49.789  35.888  42.709  1.00  0.00     0.083 H 
ATOM     24  C06 UNK A   1      51.695  33.051  42.783  1.00  0.00    -0.057 A 
ATOM     25  H07 UNK A   1      50.669  34.194  44.306  1.00  0.00     0.083 H 
ATOM     26  H12 UNK A   1      52.040  32.343  43.524  1.00  0.00     0.086 H 
ENDBRANCH  14  16
TORSDOF 1
ENDMDL
MODEL 8
REMARK VINA RESULT:      -4.9     21.852     22.561
REMARK  1 active torsions:
REMARK  status: ('A' for Active; 'I' for Inactive)
REMARK    1  A    between atoms: C05_7  and  N01_20 
ROOT
ATOM      1  C08 UNK A   1      31.721  44.329  35.744  1.00  0.00     0.020 C 
ATOM      2  C09 UNK A   1      31.204  44.265  34.293  1.00  0.00     0.126 C 
ATOM      3  C11 UNK A   1      33.372  44.882  33.426  1.00  0.00     0.126 C 
ATOM      4  C12 UNK A   1      33.948  45.010  34.853  1.00  0.00     0.020 C 
ATOM      5  H02 UNK A   1      30.786  45.243  34.017  1.00  0.00     0.082 H 
ATOM      6  H03 UNK A   1      30.398  43.524  34.235  1.00  0.00     0.082 H 
ATOM      7  H04 UNK A   1      31.908  43.876  32.409  1.00  0.00     0.316 HD
ATOM      8  H11 UNK A   1      34.541  44.114  35.076  1.00  0.00     0.066 H 
ATOM      9  H13 UNK A   1      30.880  44.696  36.341  1.00  0.00     0.066 H 
ATOM     10  H14 UNK A   1      31.961  43.309  36.072  1.00  0.00     0.066 H 
ATOM     11  H15 UNK A   1      34.627  45.868  34.819  1.00  0.00     0.066 H 
ATOM     12  H16 UNK A   1      33.003  45.864  33.103  1.00  0.00     0.082 H 
ATOM     13  H17 UNK A   1      34.174  44.582  32.741  1.00  0.00     0.082 H 
ATOM     14  N01 UNK A   1      32.925  45.190  35.923  1.00  0.00    -0.378 N 
ATOM     15  N02 UNK A   1      32.275  43.911  33.360  1.00  0.00     0.086 N 
ENDROOT
BRANCH  14  16
ATOM     16  C05 UNK A   1      33.293  45.667  37.206  1.00  0.00     0.030 A 
ATOM     17  C04 UNK A   1      33.997  46.886  37.376  1.00  0.00    -0.057 A 
ATOM     18  C03 UNK A   1      34.323  47.376  38.652  1.00  0.00    -0.081 A 
ATOM     19  H10 UNK A   1      34.304  47.486  36.529  1.00  0.00     0.086 H 
ATOM     20  C02 UNK A   1      33.959  46.658  39.799  1.00  0.00    -0.083 A 
ATOM     21  H09 UNK A   1      34.855  48.317  38.752  1.00  0.00     0.083 H 
ATOM     22  C01 UNK A   1      33.275  45.444  39.659  1.00  0.00    -0.081 A 
ATOM     23  H08 UNK A   1      34.202  47.040  40.786  1.00  0.00     0.083 H 
ATOM     24  C06 UNK A   1      32.949  44.956  38.383  1.00  0.00    -0.057 A 
ATOM     25  H07 UNK A   1      32.992  44.879  40.544  1.00  0.00     0.083 H 
ATOM     26  H12 UNK A   1      32.416  44.016  38.344  1.00  0.00     0.086 H 
ENDBRANCH  14  16
TORSDOF 1
ENDMDL
MODEL 9
REMARK VINA RESULT:      -4.8     23.148     24.458
REMARK  1 active torsions:
REMARK  status: ('A' for Active; 'I' for Inactive)
REMARK    1  A    between atoms: C05_7  and  N01_20 
ROOT
ATOM      1  C08 UNK A   1      58.387  46.154  63.089  1.00  0.00     0.020 C 
ATOM      2  C09 UNK A   1      57.844  44.909  63.819  1.00  0.00     0.126 C 
ATOM      3  C11 UNK A   1      57.074  43.949  61.741  1.00  0.00     0.126 C 
ATOM      4  C12 UNK A   1      57.552  45.185  60.948  1.00  0.00     0.020 C 
ATOM      5  H02 UNK A   1      56.813  45.102  64.142  1.00  0.00     0.082 H 
ATOM      6  H03 UNK A   1      58.452  44.728  64.713  1.00  0.00     0.082 H 
ATOM      7  H04 UNK A   1      57.507  42.921  63.457  1.00  0.00     0.316 HD
ATOM      8  H11 UNK A   1      58.499  44.940  60.451  1.00  0.00     0.066 H 
ATOM      9  H13 UNK A   1      58.232  46.991  63.778  1.00  0.00     0.066 H 
ATOM     10  H14 UNK A   1      59.467  46.024  62.938  1.00  0.00     0.066 H 
ATOM     11  H15 UNK A   1      56.794  45.349  60.176  1.00  0.00     0.066 H 
ATOM     12  H16 UNK A   1      56.023  44.092  62.022  1.00  0.00     0.082 H 
ATOM     13  H17 UNK A   1      57.131  43.065  61.094  1.00  0.00     0.082 H 
ATOM     14  N01 UNK A   1      57.742  46.414  61.770  1.00  0.00    -0.378 N 
ATOM     15  N02 UNK A   1      57.871  43.728  62.952  1.00  0.00     0.086 N 
ENDROOT
BRANCH  14  16
ATOM     16  C05 UNK A   1      57.831  47.690  61.158  1.00  0.00     0.030 A 
ATOM     17  C04 UNK A   1      58.370  47.859  59.857  1.00  0.00    -0.057 A 
ATOM     18  C03 UNK A   1      58.417  49.119  59.237  1.00  0.00    -0.081 A 
ATOM     19  H10 UNK A   1      58.760  47.021  59.293  1.00  0.00     0.086 H 
ATOM     20  C02 UNK A   1      57.929  50.251  59.902  1.00  0.00    -0.083 A 
ATOM     21  H09 UNK A   1      58.828  49.215  58.237  1.00  0.00     0.083 H 
ATOM     22  C01 UNK A   1      57.405  50.116  61.193  1.00  0.00    -0.081 A 
ATOM     23  H08 UNK A   1      57.957  51.225  59.421  1.00  0.00     0.083 H 
ATOM     24  C06 UNK A   1      57.357  48.856  61.811  1.00  0.00    -0.057 A 
ATOM     25  H07 UNK A   1      57.027  50.991  61.717  1.00  0.00     0.083 H 
ATOM     26  H12 UNK A   1      56.934  48.818  62.806  1.00  0.00     0.086 H 
ENDBRANCH  14  16
TORSDOF 1
ENDMDL
