MODEL 1
REMARK VINA RESULT:      -6.7      0.000      0.000
REMARK  Name = 69J
REMARK  2 active torsions:
REMARK  status: ('A' for Active; 'I' for Inactive)
REMARK    1  A    between atoms: CAC_2  and  OAD_13
REMARK    2  A    between atoms: CAE_3  and  OAD_13
REMARK                            x       y       z     vdW  Elec       q    Type
REMARK                         _______ _______ _______ _____ _____    ______ ____
ROOT
ATOM      1  OAD 69J A   1      51.293  35.757  39.886  0.00  0.00    +0.000 OA
ENDROOT
BRANCH   1   3
ATOM      2  CAB 69J A   1      51.873  34.868  37.712  0.00  0.00    +0.000 A 
ATOM      3  CAC 69J A   1      51.747  34.709  39.096  0.00  0.00    +0.000 A 
ATOM      4  CAI 69J A   1      52.347  33.833  36.922  0.00  0.00    +0.000 A 
ATOM      5  CAJ 69J A   1      52.129  33.494  39.670  0.00  0.00    +0.000 A 
ATOM      6  CAN 69J A   1      52.712  32.625  37.491  0.00  0.00    +0.000 A 
ATOM      7  CAO 69J A   1      52.599  32.455  38.870  0.00  0.00    +0.000 A 
ENDBRANCH   1   3
BRANCH   1   8
ATOM      8  CAE 69J A   1      50.267  35.416  40.746  0.00  0.00    +0.000 A 
ATOM      9  CAF 69J A   1      48.958  35.718  40.394  0.00  0.00    +0.000 A 
ATOM     10  CAK 69J A   1      50.504  34.792  41.966  0.00  0.00    +0.000 A 
ATOM     11  CAL 69J A   1      47.892  35.400  41.215  0.00  0.00    +0.000 A 
ATOM     12  CAP 69J A   1      49.440  34.474  42.800  0.00  0.00    +0.000 A 
ATOM     13  CAQ 69J A   1      48.139  34.768  42.424  0.00  0.00    +0.000 A 
ENDBRANCH   1   8
TORSDOF 2
ENDMDL
MODEL 2
REMARK VINA RESULT:      -6.7      1.688      2.712
REMARK  Name = 69J
REMARK  2 active torsions:
REMARK  status: ('A' for Active; 'I' for Inactive)
REMARK    1  A    between atoms: CAC_2  and  OAD_13
REMARK    2  A    between atoms: CAE_3  and  OAD_13
REMARK                            x       y       z     vdW  Elec       q    Type
REMARK                         _______ _______ _______ _____ _____    ______ ____
ROOT
ATOM      1  OAD 69J A   1      49.921  35.970  42.248  0.00  0.00    +0.000 OA
ENDROOT
BRANCH   1   3
ATOM      2  CAB 69J A   1      50.226  35.634  39.871  0.00  0.00    +0.000 A 
ATOM      3  CAC 69J A   1      50.459  35.244  41.194  0.00  0.00    +0.000 A 
ATOM      4  CAI 69J A   1      50.779  34.926  38.817  0.00  0.00    +0.000 A 
ATOM      5  CAJ 69J A   1      51.280  34.138  41.433  0.00  0.00    +0.000 A 
ATOM      6  CAN 69J A   1      51.580  33.823  39.055  0.00  0.00    +0.000 A 
ATOM      7  CAO 69J A   1      51.828  33.426  40.368  0.00  0.00    +0.000 A 
ENDBRANCH   1   3
BRANCH   1   8
ATOM      8  CAE 69J A   1      48.571  36.234  42.124  0.00  0.00    +0.000 A 
ATOM      9  CAF 69J A   1      47.702  35.194  41.820  0.00  0.00    +0.000 A 
ATOM     10  CAK 69J A   1      48.053  37.515  42.277  0.00  0.00    +0.000 A 
ATOM     11  CAL 69J A   1      46.341  35.399  41.685  0.00  0.00    +0.000 A 
ATOM     12  CAP 69J A   1      46.688  37.732  42.137  0.00  0.00    +0.000 A 
ATOM     13  CAQ 69J A   1      45.834  36.679  41.851  0.00  0.00    +0.000 A 
ENDBRANCH   1   8
TORSDOF 2
ENDMDL
MODEL 3
REMARK VINA RESULT:      -6.6      1.556      5.004
REMARK  Name = 69J
REMARK  2 active torsions:
REMARK  status: ('A' for Active; 'I' for Inactive)
REMARK    1  A    between atoms: CAC_2  and  OAD_13
REMARK    2  A    between atoms: CAE_3  and  OAD_13
REMARK                            x       y       z     vdW  Elec       q    Type
REMARK                         _______ _______ _______ _____ _____    ______ ____
ROOT
ATOM      1  OAD 69J A   1      51.691  34.286  42.137  0.00  0.00    +0.000 OA
ENDROOT
BRANCH   1   3
ATOM      2  CAB 69J A   1      50.096  35.455  40.743  0.00  0.00    +0.000 A 
ATOM      3  CAC 69J A   1      50.392  34.706  41.887  0.00  0.00    +0.000 A 
ATOM      4  CAI 69J A   1      48.797  35.856  40.478  0.00  0.00    +0.000 A 
ATOM      5  CAJ 69J A   1      49.348  34.351  42.745  0.00  0.00    +0.000 A 
ATOM      6  CAN 69J A   1      47.767  35.516  41.337  0.00  0.00    +0.000 A 
ATOM      7  CAO 69J A   1      48.044  34.763  42.477  0.00  0.00    +0.000 A 
ENDBRANCH   1   3
BRANCH   1   8
ATOM      8  CAE 69J A   1      52.088  33.192  41.392  0.00  0.00    +0.000 A 
ATOM      9  CAF 69J A   1      52.404  32.008  42.045  0.00  0.00    +0.000 A 
ATOM     10  CAK 69J A   1      52.197  33.243  40.007  0.00  0.00    +0.000 A 
ATOM     11  CAL 69J A   1      52.806  30.881  41.352  0.00  0.00    +0.000 A 
ATOM     12  CAP 69J A   1      52.606  32.118  39.303  0.00  0.00    +0.000 A 
ATOM     13  CAQ 69J A   1      52.901  30.939  39.969  0.00  0.00    +0.000 A 
ENDBRANCH   1   8
TORSDOF 2
ENDMDL
MODEL 4
REMARK VINA RESULT:      -6.6      1.954      3.216
REMARK  Name = 69J
REMARK  2 active torsions:
REMARK  status: ('A' for Active; 'I' for Inactive)
REMARK    1  A    between atoms: CAC_2  and  OAD_13
REMARK    2  A    between atoms: CAE_3  and  OAD_13
REMARK                            x       y       z     vdW  Elec       q    Type
REMARK                         _______ _______ _______ _____ _____    ______ ____
ROOT
ATOM      1  OAD 69J A   1      50.133  35.556  43.050  0.00  0.00    +0.000 OA
ENDROOT
BRANCH   1   3
ATOM      2  CAB 69J A   1      51.523  33.612  42.669  0.00  0.00    +0.000 A 
ATOM      3  CAC 69J A   1      50.839  34.733  42.184  0.00  0.00    +0.000 A 
ATOM      4  CAI 69J A   1      52.210  32.775  41.806  0.00  0.00    +0.000 A 
ATOM      5  CAJ 69J A   1      50.845  34.978  40.809  0.00  0.00    +0.000 A 
ATOM      6  CAN 69J A   1      52.226  33.028  40.446  0.00  0.00    +0.000 A 
ATOM      7  CAO 69J A   1      51.543  34.136  39.946  0.00  0.00    +0.000 A 
ENDBRANCH   1   3
BRANCH   1   8
ATOM      8  CAE 69J A   1      48.861  35.877  42.617  0.00  0.00    +0.000 A 
ATOM      9  CAF 69J A   1      48.480  37.212  42.563  0.00  0.00    +0.000 A 
ATOM     10  CAK 69J A   1      47.940  34.903  42.249  0.00  0.00    +0.000 A 
ATOM     11  CAL 69J A   1      47.221  37.592  42.137  0.00  0.00    +0.000 A 
ATOM     12  CAP 69J A   1      46.670  35.275  41.827  0.00  0.00    +0.000 A 
ATOM     13  CAQ 69J A   1      46.313  36.612  41.762  0.00  0.00    +0.000 A 
ENDBRANCH   1   8
TORSDOF 2
ENDMDL
MODEL 5
REMARK VINA RESULT:      -6.6      1.633      5.417
REMARK  Name = 69J
REMARK  2 active torsions:
REMARK  status: ('A' for Active; 'I' for Inactive)
REMARK    1  A    between atoms: CAC_2  and  OAD_13
REMARK    2  A    between atoms: CAE_3  and  OAD_13
REMARK                            x       y       z     vdW  Elec       q    Type
REMARK                         _______ _______ _______ _____ _____    ______ ____
ROOT
ATOM      1  OAD 69J A   1      50.064  35.443  42.267  0.00  0.00    +0.000 OA
ENDROOT
BRANCH   1   3
ATOM      2  CAB 69J A   1      48.474  37.267  42.253  0.00  0.00    +0.000 A 
ATOM      3  CAC 69J A   1      48.759  35.901  42.148  0.00  0.00    +0.000 A 
ATOM      4  CAI 69J A   1      47.177  37.731  42.113  0.00  0.00    +0.000 A 
ATOM      5  CAJ 69J A   1      47.712  35.016  41.878  0.00  0.00    +0.000 A 
ATOM      6  CAN 69J A   1      46.139  36.851  41.859  0.00  0.00    +0.000 A 
ATOM      7  CAO 69J A   1      46.408  35.489  41.745  0.00  0.00    +0.000 A 
ENDBRANCH   1   3
BRANCH   1   8
ATOM      8  CAE 69J A   1      50.614  34.985  41.085  0.00  0.00    +0.000 A 
ATOM      9  CAF 69J A   1      51.427  33.859  41.108  0.00  0.00    +0.000 A 
ATOM     10  CAK 69J A   1      50.393  35.626  39.872  0.00  0.00    +0.000 A 
ATOM     11  CAL 69J A   1      52.004  33.355  39.957  0.00  0.00    +0.000 A 
ATOM     12  CAP 69J A   1      50.974  35.132  38.711  0.00  0.00    +0.000 A 
ATOM     13  CAQ 69J A   1      51.768  33.997  38.750  0.00  0.00    +0.000 A 
ENDBRANCH   1   8
TORSDOF 2
ENDMDL
MODEL 6
REMARK VINA RESULT:      -6.6      1.581      2.840
REMARK  Name = 69J
REMARK  2 active torsions:
REMARK  status: ('A' for Active; 'I' for Inactive)
REMARK    1  A    between atoms: CAC_2  and  OAD_13
REMARK    2  A    between atoms: CAE_3  and  OAD_13
REMARK                            x       y       z     vdW  Elec       q    Type
REMARK                         _______ _______ _______ _____ _____    ______ ____
ROOT
ATOM      1  OAD 69J A   1      51.623  34.311  42.234  0.00  0.00    +0.000 OA
ENDROOT
BRANCH   1   3
ATOM      2  CAB 69J A   1      52.460  32.043  42.134  0.00  0.00    +0.000 A 
ATOM      3  CAC 69J A   1      52.071  33.226  41.495  0.00  0.00    +0.000 A 
ATOM      4  CAI 69J A   1      52.886  30.950  41.399  0.00  0.00    +0.000 A 
ATOM      5  CAJ 69J A   1      52.100  33.274  40.099  0.00  0.00    +0.000 A 
ATOM      6  CAN 69J A   1      52.927  31.004  40.017  0.00  0.00    +0.000 A 
ATOM      7  CAO 69J A   1      52.536  32.172  39.365  0.00  0.00    +0.000 A 
ENDBRANCH   1   3
BRANCH   1   8
ATOM      8  CAE 69J A   1      50.352  34.738  41.903  0.00  0.00    +0.000 A 
ATOM      9  CAF 69J A   1      49.286  34.394  42.725  0.00  0.00    +0.000 A 
ATOM     10  CAK 69J A   1      50.100  35.489  40.761  0.00  0.00    +0.000 A 
ATOM     11  CAL 69J A   1      47.993  34.794  42.444  0.00  0.00    +0.000 A 
ATOM     12  CAP 69J A   1      48.803  35.890  40.466  0.00  0.00    +0.000 A 
ATOM     13  CAQ 69J A   1      47.754  35.552  41.307  0.00  0.00    +0.000 A 
ENDBRANCH   1   8
TORSDOF 2
ENDMDL
MODEL 7
REMARK VINA RESULT:      -6.3      2.652      3.933
REMARK  Name = 69J
REMARK  2 active torsions:
REMARK  status: ('A' for Active; 'I' for Inactive)
REMARK    1  A    between atoms: CAC_2  and  OAD_13
REMARK    2  A    between atoms: CAE_3  and  OAD_13
REMARK                            x       y       z     vdW  Elec       q    Type
REMARK                         _______ _______ _______ _____ _____    ______ ____
ROOT
ATOM      1  OAD 69J A   1      50.762  33.636  43.560  0.00  0.00    +0.000 OA
ENDROOT
BRANCH   1   3
ATOM      2  CAB 69J A   1      53.163  33.598  43.859  0.00  0.00    +0.000 A 
ATOM      3  CAC 69J A   1      52.014  33.167  43.186  0.00  0.00    +0.000 A 
ATOM      4  CAI 69J A   1      54.412  33.115  43.504  0.00  0.00    +0.000 A 
ATOM      5  CAJ 69J A   1      52.149  32.223  42.165  0.00  0.00    +0.000 A 
ATOM      6  CAN 69J A   1      54.545  32.191  42.483  0.00  0.00    +0.000 A 
ATOM      7  CAO 69J A   1      53.409  31.747  41.808  0.00  0.00    +0.000 A 
ENDBRANCH   1   3
BRANCH   1   8
ATOM      8  CAE 69J A   1      50.091  34.316  42.563  0.00  0.00    +0.000 A 
ATOM      9  CAF 69J A   1      50.801  34.783  41.464  0.00  0.00    +0.000 A 
ATOM     10  CAK 69J A   1      48.725  34.565  42.631  0.00  0.00    +0.000 A 
ATOM     11  CAL 69J A   1      50.182  35.470  40.436  0.00  0.00    +0.000 A 
ATOM     12  CAP 69J A   1      48.095  35.260  41.606  0.00  0.00    +0.000 A 
ATOM     13  CAQ 69J A   1      48.816  35.704  40.509  0.00  0.00    +0.000 A 
ENDBRANCH   1   8
TORSDOF 2
ENDMDL
MODEL 8
REMARK VINA RESULT:      -6.2      2.673      5.067
REMARK  Name = 69J
REMARK  2 active torsions:
REMARK  status: ('A' for Active; 'I' for Inactive)
REMARK    1  A    between atoms: CAC_2  and  OAD_13
REMARK    2  A    between atoms: CAE_3  and  OAD_13
REMARK                            x       y       z     vdW  Elec       q    Type
REMARK                         _______ _______ _______ _____ _____    ______ ____
ROOT
ATOM      1  OAD 69J A   1      51.019  34.156  43.640  0.00  0.00    +0.000 OA
ENDROOT
BRANCH   1   3
ATOM      2  CAB 69J A   1      48.830  34.681  42.753  0.00  0.00    +0.000 A 
ATOM      3  CAC 69J A   1      50.218  34.601  42.597  0.00  0.00    +0.000 A 
ATOM      4  CAI 69J A   1      48.029  35.147  41.724  0.00  0.00    +0.000 A 
ATOM      5  CAJ 69J A   1      50.783  35.021  41.390  0.00  0.00    +0.000 A 
ATOM      6  CAN 69J A   1      48.589  35.549  40.524  0.00  0.00    +0.000 A 
ATOM      7  CAO 69J A   1      49.971  35.482  40.356  0.00  0.00    +0.000 A 
ENDBRANCH   1   3
BRANCH   1   8
ATOM      8  CAE 69J A   1      52.092  33.382  43.240  0.00  0.00    +0.000 A 
ATOM      9  CAF 69J A   1      51.889  32.369  42.313  0.00  0.00    +0.000 A 
ATOM     10  CAK 69J A   1      53.371  33.575  43.751  0.00  0.00    +0.000 A 
ATOM     11  CAL 69J A   1      52.925  31.565  41.876  0.00  0.00    +0.000 A 
ATOM     12  CAP 69J A   1      54.417  32.768  43.323  0.00  0.00    +0.000 A 
ATOM     13  CAQ 69J A   1      54.199  31.773  42.384  0.00  0.00    +0.000 A 
ENDBRANCH   1   8
TORSDOF 2
ENDMDL
MODEL 9
REMARK VINA RESULT:      -6.2     10.437     11.455
REMARK  Name = 69J
REMARK  2 active torsions:
REMARK  status: ('A' for Active; 'I' for Inactive)
REMARK    1  A    between atoms: CAC_2  and  OAD_13
REMARK    2  A    between atoms: CAE_3  and  OAD_13
REMARK                            x       y       z     vdW  Elec       q    Type
REMARK                         _______ _______ _______ _____ _____    ______ ____
ROOT
ATOM      1  OAD 69J A   1      43.588  26.335  41.828  0.00  0.00    +0.000 OA
ENDROOT
BRANCH   1   3
ATOM      2  CAB 69J A   1      45.866  26.716  41.108  0.00  0.00    +0.000 A 
ATOM      3  CAC 69J A   1      44.513  27.074  41.105  0.00  0.00    +0.000 A 
ATOM      4  CAI 69J A   1      46.789  27.438  40.370  0.00  0.00    +0.000 A 
ATOM      5  CAJ 69J A   1      44.109  28.161  40.325  0.00  0.00    +0.000 A 
ATOM      6  CAN 69J A   1      46.389  28.522  39.609  0.00  0.00    +0.000 A 
ATOM      7  CAO 69J A   1      45.044  28.887  39.590  0.00  0.00    +0.000 A 
ENDBRANCH   1   3
BRANCH   1   8
ATOM      8  CAE 69J A   1      42.951  25.351  41.097  0.00  0.00    +0.000 A 
ATOM      9  CAF 69J A   1      43.591  24.136  40.895  0.00  0.00    +0.000 A 
ATOM     10  CAK 69J A   1      41.692  25.545  40.540  0.00  0.00    +0.000 A 
ATOM     11  CAL 69J A   1      43.002  23.115  40.172  0.00  0.00    +0.000 A 
ATOM     12  CAP 69J A   1      41.094  24.528  39.807  0.00  0.00    +0.000 A 
ATOM     13  CAQ 69J A   1      41.741  23.314  39.630  0.00  0.00    +0.000 A 
ENDBRANCH   1   8
TORSDOF 2
ENDMDL
