MODEL 1
REMARK VINA RESULT:      -7.7      0.000      0.000
REMARK  Name = obj01
REMARK  4 active torsions:
REMARK  status: ('A' for Active; 'I' for Inactive)
REMARK    1  A    between atoms: C01_1  and  C12_12
REMARK    2  A    between atoms: C01_1  and  C14_14
REMARK    3  A    between atoms: C2_3  and  C14_14
REMARK    4  A    between atoms: C6_6  and  C12_12
REMARK                            x       y       z     vdW  Elec       q    Type
REMARK                         _______ _______ _______ _____ _____    ______ ____
ROOT
ATOM      1  C01 QAP A   1      51.212  34.694  38.312  0.00  0.00    +0.034 C 
ENDROOT
BRANCH   1   3
ATOM      2  O01 QAP A   1      53.515  35.170  37.783  0.00  0.00    -0.360 OA
ATOM      3  C12 QAP A   1      52.514  34.343  38.172  0.00  0.00    +0.079 C 
BRANCH   3   4
ATOM      4  C6  QAP A   1      52.998  32.976  38.444  0.00  0.00    +0.004 C 
ATOM      5  C10 QAP A   1      52.555  32.333  39.610  0.00  0.00    +0.011 C 
ATOM      6  C11 QAP A   1      53.778  32.275  37.505  0.00  0.00    +0.011 C 
ATOM      7  C13 QAP A   1      52.824  30.974  39.810  0.00  0.00    +0.001 C 
ATOM      8  C15 QAP A   1      53.550  30.257  38.848  0.00  0.00    +0.000 C 
ATOM      9  C16 QAP A   1      54.053  30.917  37.709  0.00  0.00    +0.001 C 
ENDBRANCH   3   4
ENDBRANCH   1   3
BRANCH   1  10
ATOM     10  C14 QAP A   1      50.871  35.590  39.271  0.00  0.00    +0.011 C 
BRANCH  10  11
ATOM     11  C2  QAP A   1      50.106  35.344  40.515  0.00  0.00    -0.026 C 
ATOM     12  C4  QAP A   1      48.745  35.695  40.501  0.00  0.00    +0.008 C 
ATOM     13  C5  QAP A   1      50.632  34.683  41.651  0.00  0.00    +0.008 C 
ATOM     14  C7  QAP A   1      47.896  35.355  41.563  0.00  0.00    +0.001 C 
ATOM     15  C8  QAP A   1      49.787  34.348  42.728  0.00  0.00    +0.001 C 
ATOM     16  C9  QAP A   1      48.413  34.670  42.674  0.00  0.00    +0.000 C 
ENDBRANCH  10  11
ENDBRANCH   1  10
TORSDOF 4
ENDMDL
MODEL 2
REMARK VINA RESULT:      -7.3      1.909      3.038
REMARK  Name = obj01
REMARK  4 active torsions:
REMARK  status: ('A' for Active; 'I' for Inactive)
REMARK    1  A    between atoms: C01_1  and  C12_12
REMARK    2  A    between atoms: C01_1  and  C14_14
REMARK    3  A    between atoms: C2_3  and  C14_14
REMARK    4  A    between atoms: C6_6  and  C12_12
REMARK                            x       y       z     vdW  Elec       q    Type
REMARK                         _______ _______ _______ _____ _____    ______ ____
ROOT
ATOM      1  C01 QAP A   1      52.364  33.163  42.376  0.00  0.00    +0.034 C 
ENDROOT
BRANCH   1   3
ATOM      2  O01 QAP A   1      52.241  30.760  42.230  0.00  0.00    -0.360 OA
ATOM      3  C12 QAP A   1      52.432  31.992  41.697  0.00  0.00    +0.079 C 
BRANCH   3   4
ATOM      4  C6  QAP A   1      52.724  31.931  40.251  0.00  0.00    +0.004 C 
ATOM      5  C10 QAP A   1      52.585  33.104  39.495  0.00  0.00    +0.011 C 
ATOM      6  C11 QAP A   1      53.255  30.769  39.661  0.00  0.00    +0.011 C 
ATOM      7  C13 QAP A   1      53.038  33.146  38.171  0.00  0.00    +0.001 C 
ATOM      8  C15 QAP A   1      53.623  32.007  37.597  0.00  0.00    +0.000 C 
ATOM      9  C16 QAP A   1      53.702  30.809  38.335  0.00  0.00    +0.001 C 
ENDBRANCH   3   4
ENDBRANCH   1   3
BRANCH   1  10
ATOM     10  C14 QAP A   1      51.185  33.536  42.932  0.00  0.00    +0.011 C 
BRANCH  10  11
ATOM     11  C2  QAP A   1      50.116  34.363  42.327  0.00  0.00    -0.026 C 
ATOM     12  C4  QAP A   1      50.430  35.025  41.128  0.00  0.00    +0.008 C 
ATOM     13  C5  QAP A   1      48.790  34.428  42.821  0.00  0.00    +0.008 C 
ATOM     14  C7  QAP A   1      49.445  35.697  40.391  0.00  0.00    +0.001 C 
ATOM     15  C8  QAP A   1      47.797  35.113  42.090  0.00  0.00    +0.001 C 
ATOM     16  C9  QAP A   1      48.124  35.733  40.864  0.00  0.00    +0.000 C 
ENDBRANCH  10  11
ENDBRANCH   1  10
TORSDOF 4
ENDMDL
MODEL 3
REMARK VINA RESULT:      -7.1      1.357      1.883
REMARK  Name = obj01
REMARK  4 active torsions:
REMARK  status: ('A' for Active; 'I' for Inactive)
REMARK    1  A    between atoms: C01_1  and  C12_12
REMARK    2  A    between atoms: C01_1  and  C14_14
REMARK    3  A    between atoms: C2_3  and  C14_14
REMARK    4  A    between atoms: C6_6  and  C12_12
REMARK                            x       y       z     vdW  Elec       q    Type
REMARK                         _______ _______ _______ _____ _____    ______ ____
ROOT
ATOM      1  C01 QAP A   1      51.289  33.641  38.295  0.00  0.00    +0.034 C 
ENDROOT
BRANCH   1   3
ATOM      2  O01 QAP A   1      53.242  32.967  37.052  0.00  0.00    -0.360 OA
ATOM      3  C12 QAP A   1      52.497  33.036  38.182  0.00  0.00    +0.079 C 
BRANCH   3   4
ATOM      4  C6  QAP A   1      53.158  32.371  39.323  0.00  0.00    +0.004 C 
ATOM      5  C10 QAP A   1      54.465  32.759  39.651  0.00  0.00    +0.011 C 
ATOM      6  C11 QAP A   1      52.461  31.468  40.146  0.00  0.00    +0.011 C 
ATOM      7  C13 QAP A   1      55.057  32.306  40.836  0.00  0.00    +0.001 C 
ATOM      8  C15 QAP A   1      54.344  31.452  41.691  0.00  0.00    +0.000 C 
ATOM      9  C16 QAP A   1      53.056  31.009  41.329  0.00  0.00    +0.001 C 
ENDBRANCH   3   4
ENDBRANCH   1   3
BRANCH   1  10
ATOM     10  C14 QAP A   1      51.175  34.745  39.073  0.00  0.00    +0.011 C 
BRANCH  10  11
ATOM     11  C2  QAP A   1      50.415  34.893  40.336  0.00  0.00    -0.026 C 
ATOM     12  C4  QAP A   1      49.148  35.494  40.246  0.00  0.00    +0.008 C 
ATOM     13  C5  QAP A   1      50.839  34.368  41.581  0.00  0.00    +0.008 C 
ATOM     14  C7  QAP A   1      48.283  35.533  41.348  0.00  0.00    +0.001 C 
ATOM     15  C8  QAP A   1      49.979  34.414  42.697  0.00  0.00    +0.001 C 
ATOM     16  C9  QAP A   1      48.692  34.982  42.573  0.00  0.00    +0.000 C 
ENDBRANCH  10  11
ENDBRANCH   1  10
TORSDOF 4
ENDMDL
MODEL 4
REMARK VINA RESULT:      -6.9     10.522     11.688
REMARK  Name = obj01
REMARK  4 active torsions:
REMARK  status: ('A' for Active; 'I' for Inactive)
REMARK    1  A    between atoms: C01_1  and  C12_12
REMARK    2  A    between atoms: C01_1  and  C14_14
REMARK    3  A    between atoms: C2_3  and  C14_14
REMARK    4  A    between atoms: C6_6  and  C12_12
REMARK                            x       y       z     vdW  Elec       q    Type
REMARK                         _______ _______ _______ _____ _____    ______ ____
ROOT
ATOM      1  C01 QAP A   1      41.866  27.580  41.360  0.00  0.00    +0.034 C 
ENDROOT
BRANCH   1   3
ATOM      2  O01 QAP A   1      42.112  29.068  39.480  0.00  0.00    -0.360 OA
ATOM      3  C12 QAP A   1      42.606  28.273  40.460  0.00  0.00    +0.079 C 
BRANCH   3   4
ATOM      4  C6  QAP A   1      44.081  28.240  40.456  0.00  0.00    +0.004 C 
ATOM      5  C10 QAP A   1      44.732  27.449  41.415  0.00  0.00    +0.011 C 
ATOM      6  C11 QAP A   1      44.824  28.873  39.442  0.00  0.00    +0.011 C 
ATOM      7  C13 QAP A   1      46.111  27.228  41.327  0.00  0.00    +0.001 C 
ATOM      8  C15 QAP A   1      46.846  27.809  40.283  0.00  0.00    +0.000 C 
ATOM      9  C16 QAP A   1      46.205  28.657  39.358  0.00  0.00    +0.001 C 
ENDBRANCH   3   4
ENDBRANCH   1   3
BRANCH   1  10
ATOM     10  C14 QAP A   1      41.117  26.534  40.933  0.00  0.00    +0.011 C 
BRANCH  10  11
ATOM     11  C2  QAP A   1      41.587  25.203  40.483  0.00  0.00    -0.026 C 
ATOM     12  C4  QAP A   1      40.888  24.612  39.417  0.00  0.00    +0.008 C 
ATOM     13  C5  QAP A   1      42.746  24.562  40.983  0.00  0.00    +0.008 C 
ATOM     14  C7  QAP A   1      41.350  23.436  38.810  0.00  0.00    +0.001 C 
ATOM     15  C8  QAP A   1      43.209  23.372  40.385  0.00  0.00    +0.001 C 
ATOM     16  C9  QAP A   1      42.517  22.820  39.285  0.00  0.00    +0.000 C 
ENDBRANCH  10  11
ENDBRANCH   1  10
TORSDOF 4
ENDMDL
MODEL 5
REMARK VINA RESULT:      -6.9      4.128      5.088
REMARK  Name = obj01
REMARK  4 active torsions:
REMARK  status: ('A' for Active; 'I' for Inactive)
REMARK    1  A    between atoms: C01_1  and  C12_12
REMARK    2  A    between atoms: C01_1  and  C14_14
REMARK    3  A    between atoms: C2_3  and  C14_14
REMARK    4  A    between atoms: C6_6  and  C12_12
REMARK                            x       y       z     vdW  Elec       q    Type
REMARK                         _______ _______ _______ _____ _____    ______ ____
ROOT
ATOM      1  C01 QAP A   1      52.502  33.727  43.579  0.00  0.00    +0.034 C 
ENDROOT
BRANCH   1   3
ATOM      2  O01 QAP A   1      53.300  31.707  42.534  0.00  0.00    -0.360 OA
ATOM      3  C12 QAP A   1      53.471  32.831  43.272  0.00  0.00    +0.079 C 
BRANCH   3   4
ATOM      4  C6  QAP A   1      54.869  32.994  43.717  0.00  0.00    +0.004 C 
ATOM      5  C10 QAP A   1      55.216  34.167  44.403  0.00  0.00    +0.011 C 
ATOM      6  C11 QAP A   1      55.806  31.953  43.580  0.00  0.00    +0.011 C 
ATOM      7  C13 QAP A   1      56.470  34.279  45.017  0.00  0.00    +0.001 C 
ATOM      8  C15 QAP A   1      57.385  33.220  44.933  0.00  0.00    +0.000 C 
ATOM      9  C16 QAP A   1      57.063  32.068  44.188  0.00  0.00    +0.001 C 
ENDBRANCH   3   4
ENDBRANCH   1   3
BRANCH   1  10
ATOM     10  C14 QAP A   1      51.218  33.451  43.241  0.00  0.00    +0.011 C 
BRANCH  10  11
ATOM     11  C2  QAP A   1      50.287  34.288  42.449  0.00  0.00    -0.026 C 
ATOM     12  C4  QAP A   1      50.763  34.777  41.221  0.00  0.00    +0.008 C 
ATOM     13  C5  QAP A   1      48.936  34.520  42.803  0.00  0.00    +0.008 C 
ATOM     14  C7  QAP A   1      49.913  35.438  40.323  0.00  0.00    +0.001 C 
ATOM     15  C8  QAP A   1      48.078  35.195  41.910  0.00  0.00    +0.001 C 
ATOM     16  C9  QAP A   1      48.566  35.638  40.661  0.00  0.00    +0.000 C 
ENDBRANCH  10  11
ENDBRANCH   1  10
TORSDOF 4
ENDMDL
MODEL 6
REMARK VINA RESULT:      -6.9      4.132      6.753
REMARK  Name = obj01
REMARK  4 active torsions:
REMARK  status: ('A' for Active; 'I' for Inactive)
REMARK    1  A    between atoms: C01_1  and  C12_12
REMARK    2  A    between atoms: C01_1  and  C14_14
REMARK    3  A    between atoms: C2_3  and  C14_14
REMARK    4  A    between atoms: C6_6  and  C12_12
REMARK                            x       y       z     vdW  Elec       q    Type
REMARK                         _______ _______ _______ _____ _____    ______ ____
ROOT
ATOM      1  C01 QAP A   1      52.424  33.876  43.557  0.00  0.00    +0.034 C 
ENDROOT
BRANCH   1   3
ATOM      2  O01 QAP A   1      52.210  32.841  41.390  0.00  0.00    -0.360 OA
ATOM      3  C12 QAP A   1      51.808  33.695  42.363  0.00  0.00    +0.079 C 
BRANCH   3   4
ATOM      4  C6  QAP A   1      50.585  34.430  41.985  0.00  0.00    +0.004 C 
ATOM      5  C10 QAP A   1      50.548  35.057  40.731  0.00  0.00    +0.011 C 
ATOM      6  C11 QAP A   1      49.434  34.399  42.793  0.00  0.00    +0.011 C 
ATOM      7  C13 QAP A   1      49.348  35.592  40.247  0.00  0.00    +0.001 C 
ATOM      8  C15 QAP A   1      48.184  35.511  41.024  0.00  0.00    +0.000 C 
ATOM      9  C16 QAP A   1      48.235  34.940  42.312  0.00  0.00    +0.001 C 
ENDBRANCH   3   4
ENDBRANCH   1   3
BRANCH   1  10
ATOM     10  C14 QAP A   1      53.276  32.923  44.009  0.00  0.00    +0.011 C 
BRANCH  10  11
ATOM     11  C2  QAP A   1      54.738  33.037  44.220  0.00  0.00    -0.026 C 
ATOM     12  C4  QAP A   1      55.238  34.318  44.510  0.00  0.00    +0.008 C 
ATOM     13  C5  QAP A   1      55.621  31.931  44.259  0.00  0.00    +0.008 C 
ATOM     14  C7  QAP A   1      56.574  34.508  44.886  0.00  0.00    +0.001 C 
ATOM     15  C8  QAP A   1      56.970  32.117  44.626  0.00  0.00    +0.001 C 
ATOM     16  C9  QAP A   1      57.441  33.407  44.957  0.00  0.00    +0.000 C 
ENDBRANCH  10  11
ENDBRANCH   1  10
TORSDOF 4
ENDMDL
MODEL 7
REMARK VINA RESULT:      -6.7     10.781     12.136
REMARK  Name = obj01
REMARK  4 active torsions:
REMARK  status: ('A' for Active; 'I' for Inactive)
REMARK    1  A    between atoms: C01_1  and  C12_12
REMARK    2  A    between atoms: C01_1  and  C14_14
REMARK    3  A    between atoms: C2_3  and  C14_14
REMARK    4  A    between atoms: C6_6  and  C12_12
REMARK                            x       y       z     vdW  Elec       q    Type
REMARK                         _______ _______ _______ _____ _____    ______ ____
ROOT
ATOM      1  C01 QAP A   1      42.571  26.119  42.295  0.00  0.00    +0.034 C 
ENDROOT
BRANCH   1   3
ATOM      2  O01 QAP A   1      43.021  28.360  43.060  0.00  0.00    -0.360 OA
ATOM      3  C12 QAP A   1      43.230  27.302  42.239  0.00  0.00    +0.079 C 
BRANCH   3   4
ATOM      4  C6  QAP A   1      44.288  27.572  41.245  0.00  0.00    +0.004 C 
ATOM      5  C10 QAP A   1      44.033  28.521  40.244  0.00  0.00    +0.011 C 
ATOM      6  C11 QAP A   1      45.567  26.999  41.366  0.00  0.00    +0.011 C 
ATOM      7  C13 QAP A   1      45.067  28.956  39.407  0.00  0.00    +0.001 C 
ATOM      8  C15 QAP A   1      46.359  28.430  39.562  0.00  0.00    +0.000 C 
ATOM      9  C16 QAP A   1      46.600  27.428  40.523  0.00  0.00    +0.001 C 
ENDBRANCH   3   4
ENDBRANCH   1   3
BRANCH   1  10
ATOM     10  C14 QAP A   1      41.825  25.728  41.232  0.00  0.00    +0.011 C 
BRANCH  10  11
ATOM     11  C2  QAP A   1      42.061  24.577  40.330  0.00  0.00    -0.026 C 
ATOM     12  C4  QAP A   1      43.195  23.790  40.592  0.00  0.00    +0.008 C 
ATOM     13  C5  QAP A   1      41.163  24.171  39.314  0.00  0.00    +0.008 C 
ATOM     14  C7  QAP A   1      43.419  22.589  39.904  0.00  0.00    +0.001 C 
ATOM     15  C8  QAP A   1      41.389  22.970  38.610  0.00  0.00    +0.001 C 
ATOM     16  C9  QAP A   1      42.510  22.170  38.920  0.00  0.00    +0.000 C 
ENDBRANCH  10  11
ENDBRANCH   1  10
TORSDOF 4
ENDMDL
MODEL 8
REMARK VINA RESULT:      -6.6     10.618     11.876
REMARK  Name = obj01
REMARK  4 active torsions:
REMARK  status: ('A' for Active; 'I' for Inactive)
REMARK    1  A    between atoms: C01_1  and  C12_12
REMARK    2  A    between atoms: C01_1  and  C14_14
REMARK    3  A    between atoms: C2_3  and  C14_14
REMARK    4  A    between atoms: C6_6  and  C12_12
REMARK                            x       y       z     vdW  Elec       q    Type
REMARK                         _______ _______ _______ _____ _____    ______ ____
ROOT
ATOM      1  C01 QAP A   1      42.002  27.042  42.388  0.00  0.00    +0.034 C 
ENDROOT
BRANCH   1   3
ATOM      2  O01 QAP A   1      40.754  27.316  40.344  0.00  0.00    -0.360 OA
ATOM      3  C12 QAP A   1      41.527  26.601  41.198  0.00  0.00    +0.079 C 
BRANCH   3   4
ATOM      4  C6  QAP A   1      41.819  25.249  40.681  0.00  0.00    +0.004 C 
ATOM      5  C10 QAP A   1      40.966  24.712  39.706  0.00  0.00    +0.011 C 
ATOM      6  C11 QAP A   1      42.991  24.563  41.050  0.00  0.00    +0.011 C 
ATOM      7  C13 QAP A   1      41.311  23.527  39.044  0.00  0.00    +0.001 C 
ATOM      8  C15 QAP A   1      42.508  22.871  39.367  0.00  0.00    +0.000 C 
ATOM      9  C16 QAP A   1      43.333  23.374  40.393  0.00  0.00    +0.001 C 
ENDBRANCH   3   4
ENDBRANCH   1   3
BRANCH   1  10
ATOM     10  C14 QAP A   1      42.937  28.023  42.402  0.00  0.00    +0.011 C 
BRANCH  10  11
ATOM     11  C2  QAP A   1      44.067  28.216  41.464  0.00  0.00    -0.026 C 
ATOM     12  C4  QAP A   1      45.271  27.564  41.781  0.00  0.00    +0.008 C 
ATOM     13  C5  QAP A   1      43.967  28.912  40.236  0.00  0.00    +0.008 C 
ATOM     14  C7  QAP A   1      46.346  27.546  40.882  0.00  0.00    +0.001 C 
ATOM     15  C8  QAP A   1      45.048  28.909  39.331  0.00  0.00    +0.001 C 
ATOM     16  C9  QAP A   1      46.232  28.208  39.650  0.00  0.00    +0.000 C 
ENDBRANCH  10  11
ENDBRANCH   1  10
TORSDOF 4
ENDMDL
MODEL 9
REMARK VINA RESULT:      -6.5      9.694     11.933
REMARK  Name = obj01
REMARK  4 active torsions:
REMARK  status: ('A' for Active; 'I' for Inactive)
REMARK    1  A    between atoms: C01_1  and  C12_12
REMARK    2  A    between atoms: C01_1  and  C14_14
REMARK    3  A    between atoms: C2_3  and  C14_14
REMARK    4  A    between atoms: C6_6  and  C12_12
REMARK                            x       y       z     vdW  Elec       q    Type
REMARK                         _______ _______ _______ _____ _____    ______ ____
ROOT
ATOM      1  C01 QAP A   1      41.623  27.789  40.713  0.00  0.00    +0.034 C 
ENDROOT
BRANCH   1   3
ATOM      2  O01 QAP A   1      39.582  27.103  41.798  0.00  0.00    -0.360 OA
ATOM      3  C12 QAP A   1      40.888  27.469  41.806  0.00  0.00    +0.079 C 
BRANCH   3   4
ATOM      4  C6  QAP A   1      41.452  27.479  43.170  0.00  0.00    +0.004 C 
ATOM      5  C10 QAP A   1      41.190  28.586  43.990  0.00  0.00    +0.011 C 
ATOM      6  C11 QAP A   1      42.123  26.357  43.691  0.00  0.00    +0.011 C 
ATOM      7  C13 QAP A   1      41.531  28.553  45.347  0.00  0.00    +0.001 C 
ATOM      8  C15 QAP A   1      42.147  27.413  45.885  0.00  0.00    +0.000 C 
ATOM      9  C16 QAP A   1      42.470  26.327  45.048  0.00  0.00    +0.001 C 
ENDBRANCH   3   4
ENDBRANCH   1   3
BRANCH   1  10
ATOM     10  C14 QAP A   1      42.638  28.679  40.839  0.00  0.00    +0.011 C 
BRANCH  10  11
ATOM     11  C2  QAP A   1      44.086  28.443  40.634  0.00  0.00    -0.026 C 
ATOM     12  C4  QAP A   1      44.719  27.574  41.540  0.00  0.00    +0.008 C 
ATOM     13  C5  QAP A   1      44.822  28.943  39.533  0.00  0.00    +0.008 C 
ATOM     14  C7  QAP A   1      46.042  27.156  41.340  0.00  0.00    +0.001 C 
ATOM     15  C8  QAP A   1      46.157  28.535  39.332  0.00  0.00    +0.001 C 
ATOM     16  C9  QAP A   1      46.760  27.626  40.229  0.00  0.00    +0.000 C 
ENDBRANCH  10  11
ENDBRANCH   1  10
TORSDOF 4
ENDMDL
