MODEL 1
REMARK VINA RESULT:      -5.8      0.000      0.000
REMARK  Name = BNL
REMARK  0 active torsions:
REMARK  status: ('A' for Active; 'I' for Inactive)
REMARK                            x       y       z     vdW  Elec       q    Type
REMARK                         _______ _______ _______ _____ _____    ______ ____
ROOT
ATOM      1  C11 UNK A   1      46.267  28.563  39.478  0.00  0.00    +0.000 C 
ATOM      2  C12 UNK A   1      46.729  27.617  40.396  0.00  0.00    +0.000 C 
ATOM      3  H01 UNK A   1      44.565  30.425  37.911  0.00  0.00    +0.000 HD
ATOM      4  C13 UNK A   1      45.848  27.031  41.316  0.00  0.00    +0.000 C 
ATOM      5  C14 UNK A   1      44.497  27.382  41.327  0.00  0.00    +0.000 C 
ATOM      6  C15 UNK A   1      44.049  28.322  40.412  0.00  0.00    +0.000 C 
ATOM      7  N01 UNK A   1      44.181  29.861  38.655  0.00  0.00    +0.000 N 
ATOM      8  C08 UNK A   1      42.657  28.835  40.253  0.00  0.00    +0.000 C 
ATOM      9  C10 UNK A   1      42.775  29.841  39.099  0.00  0.00    +0.000 C 
ATOM     10  C09 UNK A   1      44.925  28.906  39.499  0.00  0.00    +0.000 C 
ENDROOT
TORSDOF 0
ENDMDL
MODEL 2
REMARK VINA RESULT:      -5.7     19.866     20.744
REMARK  Name = BNL
REMARK  0 active torsions:
REMARK  status: ('A' for Active; 'I' for Inactive)
REMARK                            x       y       z     vdW  Elec       q    Type
REMARK                         _______ _______ _______ _____ _____    ______ ____
ROOT
ATOM      1  C11 UNK A   1      46.748  49.651  46.270  0.00  0.00    +0.000 C 
ATOM      2  C12 UNK A   1      45.741  49.565  47.234  0.00  0.00    +0.000 C 
ATOM      3  H01 UNK A   1      48.489  49.175  43.912  0.00  0.00    +0.000 HD
ATOM      4  C13 UNK A   1      44.765  48.562  47.155  0.00  0.00    +0.000 C 
ATOM      5  C14 UNK A   1      44.785  47.633  46.112  0.00  0.00    +0.000 C 
ATOM      6  C15 UNK A   1      45.789  47.728  45.161  0.00  0.00    +0.000 C 
ATOM      7  N01 UNK A   1      47.692  48.586  44.104  0.00  0.00    +0.000 N 
ATOM      8  C08 UNK A   1      45.995  46.845  43.976  0.00  0.00    +0.000 C 
ATOM      9  C10 UNK A   1      47.245  47.432  43.303  0.00  0.00    +0.000 C 
ATOM     10  C09 UNK A   1      46.759  48.726  45.239  0.00  0.00    +0.000 C 
ENDROOT
TORSDOF 0
ENDMDL
MODEL 3
REMARK VINA RESULT:      -5.5      1.015      2.001
REMARK  Name = BNL
REMARK  0 active torsions:
REMARK  status: ('A' for Active; 'I' for Inactive)
REMARK                            x       y       z     vdW  Elec       q    Type
REMARK                         _______ _______ _______ _____ _____    ______ ____
ROOT
ATOM      1  C11 UNK A   1      44.419  27.396  41.512  0.00  0.00    +0.000 C 
ATOM      2  C12 UNK A   1      45.762  27.030  41.396  0.00  0.00    +0.000 C 
ATOM      3  H01 UNK A   1      41.761  28.659  41.114  0.00  0.00    +0.000 HD
ATOM      4  C13 UNK A   1      46.571  27.601  40.404  0.00  0.00    +0.000 C 
ATOM      5  C14 UNK A   1      46.048  28.546  39.519  0.00  0.00    +0.000 C 
ATOM      6  C15 UNK A   1      44.714  28.902  39.643  0.00  0.00    +0.000 C 
ATOM      7  N01 UNK A   1      42.548  28.893  40.526  0.00  0.00    +0.000 N 
ATOM      8  C08 UNK A   1      43.961  29.884  38.809  0.00  0.00    +0.000 C 
ATOM      9  C10 UNK A   1      42.547  29.855  39.409  0.00  0.00    +0.000 C 
ATOM     10  C09 UNK A   1      43.909  28.333  40.628  0.00  0.00    +0.000 C 
ENDROOT
TORSDOF 0
ENDMDL
MODEL 4
REMARK VINA RESULT:      -5.5     19.487     20.248
REMARK  Name = BNL
REMARK  0 active torsions:
REMARK  status: ('A' for Active; 'I' for Inactive)
REMARK                            x       y       z     vdW  Elec       q    Type
REMARK                         _______ _______ _______ _____ _____    ______ ____
ROOT
ATOM      1  C11 UNK A   1      45.226  48.344  48.256  0.00  0.00    +0.000 C 
ATOM      2  C12 UNK A   1      45.208  48.048  49.621  0.00  0.00    +0.000 C 
ATOM      3  H01 UNK A   1      44.741  48.329  45.326  0.00  0.00    +0.000 HD
ATOM      4  C13 UNK A   1      44.432  46.987  50.108  0.00  0.00    +0.000 C 
ATOM      5  C14 UNK A   1      43.668  46.209  49.236  0.00  0.00    +0.000 C 
ATOM      6  C15 UNK A   1      43.693  46.511  47.883  0.00  0.00    +0.000 C 
ATOM      7  N01 UNK A   1      44.299  47.656  45.936  0.00  0.00    +0.000 N 
ATOM      8  C08 UNK A   1      42.958  45.812  46.789  0.00  0.00    +0.000 C 
ATOM      9  C10 UNK A   1      43.373  46.585  45.528  0.00  0.00    +0.000 C 
ATOM     10  C09 UNK A   1      44.463  47.567  47.399  0.00  0.00    +0.000 C 
ENDROOT
TORSDOF 0
ENDMDL
MODEL 5
REMARK VINA RESULT:      -5.3      1.357      2.131
REMARK  Name = BNL
REMARK  0 active torsions:
REMARK  status: ('A' for Active; 'I' for Inactive)
REMARK                            x       y       z     vdW  Elec       q    Type
REMARK                         _______ _______ _______ _____ _____    ______ ____
ROOT
ATOM      1  C11 UNK A   1      44.664  29.001  39.497  0.00  0.00    +0.000 C 
ATOM      2  C12 UNK A   1      45.989  28.563  39.457  0.00  0.00    +0.000 C 
ATOM      3  H01 UNK A   1      41.843  29.491  40.287  0.00  0.00    +0.000 HD
ATOM      4  C13 UNK A   1      46.499  27.746  40.475  0.00  0.00    +0.000 C 
ATOM      5  C14 UNK A   1      45.689  27.355  41.543  0.00  0.00    +0.000 C 
ATOM      6  C15 UNK A   1      44.375  27.795  41.573  0.00  0.00    +0.000 C 
ATOM      7  N01 UNK A   1      42.456  28.921  40.851  0.00  0.00    +0.000 N 
ATOM      8  C08 UNK A   1      43.347  27.496  42.613  0.00  0.00    +0.000 C 
ATOM      9  C10 UNK A   1      42.103  28.248  42.114  0.00  0.00    +0.000 C 
ATOM     10  C09 UNK A   1      43.868  28.609  40.562  0.00  0.00    +0.000 C 
ENDROOT
TORSDOF 0
ENDMDL
MODEL 6
REMARK VINA RESULT:      -5.2      2.020      2.900
REMARK  Name = BNL
REMARK  0 active torsions:
REMARK  status: ('A' for Active; 'I' for Inactive)
REMARK                            x       y       z     vdW  Elec       q    Type
REMARK                         _______ _______ _______ _____ _____    ______ ____
ROOT
ATOM      1  C11 UNK A   1      46.316  27.438  40.991  0.00  0.00    +0.000 C 
ATOM      2  C12 UNK A   1      46.523  28.189  39.832  0.00  0.00    +0.000 C 
ATOM      3  H01 UNK A   1      45.101  26.128  43.363  0.00  0.00    +0.000 HD
ATOM      4  C13 UNK A   1      45.466  28.902  39.248  0.00  0.00    +0.000 C 
ATOM      5  C14 UNK A   1      44.192  28.873  39.817  0.00  0.00    +0.000 C 
ATOM      6  C15 UNK A   1      43.997  28.124  40.968  0.00  0.00    +0.000 C 
ATOM      7  N01 UNK A   1      44.556  26.715  42.750  0.00  0.00    +0.000 N 
ATOM      8  C08 UNK A   1      42.726  27.959  41.732  0.00  0.00    +0.000 C 
ATOM      9  C10 UNK A   1      43.123  27.031  42.891  0.00  0.00    +0.000 C 
ATOM     10  C09 UNK A   1      45.047  27.415  41.547  0.00  0.00    +0.000 C 
ENDROOT
TORSDOF 0
ENDMDL
MODEL 7
REMARK VINA RESULT:      -5.2      8.553      9.010
REMARK  Name = BNL
REMARK  0 active torsions:
REMARK  status: ('A' for Active; 'I' for Inactive)
REMARK                            x       y       z     vdW  Elec       q    Type
REMARK                         _______ _______ _______ _____ _____    ______ ____
ROOT
ATOM      1  C11 UNK A   1      50.306  34.506  42.615  0.00  0.00    +0.000 C 
ATOM      2  C12 UNK A   1      49.137  35.221  42.884  0.00  0.00    +0.000 C 
ATOM      3  H01 UNK A   1      52.608  33.205  41.261  0.00  0.00    +0.000 HD
ATOM      4  C13 UNK A   1      48.413  35.819  41.843  0.00  0.00    +0.000 C 
ATOM      5  C14 UNK A   1      48.848  35.706  40.521  0.00  0.00    +0.000 C 
ATOM      6  C15 UNK A   1      50.010  34.994  40.265  0.00  0.00    +0.000 C 
ATOM      7  N01 UNK A   1      51.911  33.717  40.740  0.00  0.00    +0.000 N 
ATOM      8  C08 UNK A   1      50.645  34.754  38.936  0.00  0.00    +0.000 C 
ATOM      9  C10 UNK A   1      51.887  33.917  39.279  0.00  0.00    +0.000 C 
ATOM     10  C09 UNK A   1      50.730  34.402  41.300  0.00  0.00    +0.000 C 
ENDROOT
TORSDOF 0
ENDMDL
MODEL 8
REMARK VINA RESULT:      -5.0      1.604      3.760
REMARK  Name = BNL
REMARK  0 active torsions:
REMARK  status: ('A' for Active; 'I' for Inactive)
REMARK                            x       y       z     vdW  Elec       q    Type
REMARK                         _______ _______ _______ _____ _____    ______ ____
ROOT
ATOM      1  C11 UNK A   1      42.745  27.585  40.769  0.00  0.00    +0.000 C 
ATOM      2  C12 UNK A   1      42.029  28.596  40.125  0.00  0.00    +0.000 C 
ATOM      3  H01 UNK A   1      44.912  25.835  41.799  0.00  0.00    +0.000 HD
ATOM      4  C13 UNK A   1      42.697  29.575  39.376  0.00  0.00    +0.000 C 
ATOM      5  C14 UNK A   1      44.088  29.552  39.261  0.00  0.00    +0.000 C 
ATOM      6  C15 UNK A   1      44.790  28.543  39.903  0.00  0.00    +0.000 C 
ATOM      7  N01 UNK A   1      45.114  26.635  41.216  0.00  0.00    +0.000 N 
ATOM      8  C08 UNK A   1      46.267  28.335  39.909  0.00  0.00    +0.000 C 
ATOM      9  C10 UNK A   1      46.449  27.080  40.777  0.00  0.00    +0.000 C 
ATOM     10  C09 UNK A   1      44.125  27.572  40.650  0.00  0.00    +0.000 C 
ENDROOT
TORSDOF 0
ENDMDL
MODEL 9
REMARK VINA RESULT:      -5.0     19.397     21.328
REMARK  Name = BNL
REMARK  0 active torsions:
REMARK  status: ('A' for Active; 'I' for Inactive)
REMARK                            x       y       z     vdW  Elec       q    Type
REMARK                         _______ _______ _______ _____ _____    ______ ____
ROOT
ATOM      1  C11 UNK A   1      33.399  47.504  40.397  0.00  0.00    +0.000 C 
ATOM      2  C12 UNK A   1      33.769  48.634  39.665  0.00  0.00    +0.000 C 
ATOM      3  H01 UNK A   1      32.788  44.722  41.237  0.00  0.00    +0.000 HD
ATOM      4  C13 UNK A   1      34.171  48.515  38.327  0.00  0.00    +0.000 C 
ATOM      5  C14 UNK A   1      34.205  47.264  37.706  0.00  0.00    +0.000 C 
ATOM      6  C15 UNK A   1      33.835  46.149  38.442  0.00  0.00    +0.000 C 
ATOM      7  N01 UNK A   1      33.104  44.932  40.301  0.00  0.00    +0.000 N 
ATOM      8  C08 UNK A   1      33.799  44.732  37.976  0.00  0.00    +0.000 C 
ATOM      9  C10 UNK A   1      33.319  43.959  39.214  0.00  0.00    +0.000 C 
ATOM     10  C09 UNK A   1      33.437  46.268  39.772  0.00  0.00    +0.000 C 
ENDROOT
TORSDOF 0
ENDMDL
