MODEL 1
REMARK VINA RESULT:      -7.5      0.000      0.000
REMARK  Name = obj01
REMARK  3 active torsions:
REMARK  status: ('A' for Active; 'I' for Inactive)
REMARK    1  A    between atoms: C02_3  and  N03_8
REMARK    2  A    between atoms: C2B_4  and  C07_17
REMARK    3  A    between atoms: N03_8  and  C07_17
REMARK                            x       y       z     vdW  Elec       q    Type
REMARK                         _______ _______ _______ _____ _____    ______ ____
ROOT
ATOM      1  C01 BYC A   1      52.626  34.518  36.441  0.00  0.00    +0.224 C 
ATOM      2  N01 BYC A   1      53.263  33.338  36.504  0.00  0.00    -0.236 NA
ATOM      3  C02 BYC A   1      51.776  34.422  38.564  0.00  0.00    +0.129 C 
ATOM      4  N02 BYC A   1      51.902  35.090  37.409  0.00  0.00    -0.221 NA
ATOM      5  C03 BYC A   1      53.799  31.410  37.819  0.00  0.00    +0.029 C 
ATOM      6  C04 BYC A   1      52.181  32.357  39.899  0.00  0.00    +0.014 C 
ATOM      7  C4A BYC A   1      52.338  33.134  38.727  0.00  0.00    +0.040 C 
ATOM      8  C05 BYC A   1      53.593  30.619  38.963  0.00  0.00    +0.002 C 
ATOM      9  C5M BYC A   1      53.130  32.647  37.654  0.00  0.00    +0.075 C 
ATOM     10  C06 BYC A   1      52.744  31.074  39.990  0.00  0.00    +0.001 C 
ENDROOT
BRANCH   3  11
ATOM     11  N03 BYC A   1      51.407  35.173  39.668  0.00  0.00    -0.328 N 
ATOM     12  H   BYC A   1      52.160  35.794  39.938  0.00  0.00    +0.148 HD
BRANCH  11  13
ATOM     13  C07 BYC A   1      50.064  35.793  39.745  0.00  0.00    +0.115 C 
BRANCH  13  14
ATOM     14  C2B BYC A   1      49.270  35.183  40.920  0.00  0.00    +0.051 C 
ATOM     15  C3B BYC A   1      50.244  34.846  42.031  0.00  0.00    -0.018 C 
ATOM     16  C4B BYC A   1      50.226  35.453  43.223  0.00  0.00    -0.004 C 
ATOM     17  C5B BYC A   1      49.295  36.386  43.513  0.00  0.00    -0.001 C 
ATOM     18  C6B BYC A   1      48.348  36.751  42.642  0.00  0.00    -0.004 C 
ATOM     19  C7B BYC A   1      48.265  36.206  41.418  0.00  0.00    -0.018 C 
ENDBRANCH  13  14
ENDBRANCH  11  13
ENDBRANCH   3  11
TORSDOF 3
ENDMDL
MODEL 2
REMARK VINA RESULT:      -6.9      9.926     10.576
REMARK  Name = obj01
REMARK  3 active torsions:
REMARK  status: ('A' for Active; 'I' for Inactive)
REMARK    1  A    between atoms: C02_3  and  N03_8
REMARK    2  A    between atoms: C2B_4  and  C07_17
REMARK    3  A    between atoms: N03_8  and  C07_17
REMARK                            x       y       z     vdW  Elec       q    Type
REMARK                         _______ _______ _______ _____ _____    ______ ____
ROOT
ATOM      1  C01 BYC A   1      42.964  30.031  38.718  0.00  0.00    +0.224 C 
ATOM      2  N01 BYC A   1      44.270  29.745  38.597  0.00  0.00    -0.236 NA
ATOM      3  C02 BYC A   1      42.636  28.767  40.598  0.00  0.00    +0.129 C 
ATOM      4  N02 BYC A   1      42.132  29.592  39.669  0.00  0.00    -0.221 NA
ATOM      5  C03 BYC A   1      46.163  28.576  39.482  0.00  0.00    +0.029 C 
ATOM      6  C04 BYC A   1      44.546  27.411  41.449  0.00  0.00    +0.014 C 
ATOM      7  C4A BYC A   1      43.981  28.332  40.535  0.00  0.00    +0.040 C 
ATOM      8  C05 BYC A   1      46.704  27.619  40.359  0.00  0.00    +0.002 C 
ATOM      9  C5M BYC A   1      44.785  28.902  39.514  0.00  0.00    +0.075 C 
ATOM     10  C06 BYC A   1      45.882  26.999  41.319  0.00  0.00    +0.001 C 
ENDROOT
BRANCH   3  11
ATOM     11  N03 BYC A   1      41.917  28.662  41.777  0.00  0.00    -0.328 N 
ATOM     12  H   BYC A   1      41.524  29.561  42.030  0.00  0.00    +0.148 HD
BRANCH  11  13
ATOM     13  C07 BYC A   1      40.998  27.523  42.003  0.00  0.00    +0.115 C 
BRANCH  13  14
ATOM     14  C2B BYC A   1      40.952  27.175  43.507  0.00  0.00    +0.051 C 
ATOM     15  C3B BYC A   1      41.774  25.922  43.732  0.00  0.00    -0.018 C 
ATOM     16  C4B BYC A   1      42.897  25.911  44.459  0.00  0.00    -0.004 C 
ATOM     17  C5B BYC A   1      43.339  27.029  45.072  0.00  0.00    -0.001 C 
ATOM     18  C6B BYC A   1      42.690  28.196  44.993  0.00  0.00    -0.004 C 
ATOM     19  C7B BYC A   1      41.550  28.325  44.296  0.00  0.00    -0.018 C 
ENDBRANCH  13  14
ENDBRANCH  11  13
ENDBRANCH   3  11
TORSDOF 3
ENDMDL
MODEL 3
REMARK VINA RESULT:      -6.8      1.700      2.477
REMARK  Name = obj01
REMARK  3 active torsions:
REMARK  status: ('A' for Active; 'I' for Inactive)
REMARK    1  A    between atoms: C02_3  and  N03_8
REMARK    2  A    between atoms: C2B_4  and  C07_17
REMARK    3  A    between atoms: N03_8  and  C07_17
REMARK                            x       y       z     vdW  Elec       q    Type
REMARK                         _______ _______ _______ _____ _____    ______ ____
ROOT
ATOM      1  C01 BYC A   1      51.793  34.071  37.805  0.00  0.00    +0.224 C 
ATOM      2  N01 BYC A   1      52.643  33.133  38.248  0.00  0.00    -0.236 NA
ATOM      3  C02 BYC A   1      50.972  34.617  39.871  0.00  0.00    +0.129 C 
ATOM      4  N02 BYC A   1      50.970  34.822  38.546  0.00  0.00    -0.221 NA
ATOM      5  C03 BYC A   1      53.536  31.957  40.135  0.00  0.00    +0.029 C 
ATOM      6  C04 BYC A   1      51.763  33.301  41.834  0.00  0.00    +0.014 C 
ATOM      7  C4A BYC A   1      51.770  33.604  40.452  0.00  0.00    +0.040 C 
ATOM      8  C05 BYC A   1      53.483  31.623  41.499  0.00  0.00    +0.002 C 
ATOM      9  C5M BYC A   1      52.643  32.905  39.577  0.00  0.00    +0.075 C 
ATOM     10  C06 BYC A   1      52.560  32.266  42.346  0.00  0.00    +0.001 C 
ENDROOT
BRANCH   3  11
ATOM     11  N03 BYC A   1      50.463  35.644  40.649  0.00  0.00    -0.328 N 
ATOM     12  H   BYC A   1      51.151  36.381  40.751  0.00  0.00    +0.148 HD
BRANCH  11  13
ATOM     13  C07 BYC A   1      49.083  36.139  40.439  0.00  0.00    +0.115 C 
BRANCH  13  14
ATOM     14  C2B BYC A   1      48.354  36.255  41.795  0.00  0.00    +0.051 C 
ATOM     15  C3B BYC A   1      47.916  37.693  41.980  0.00  0.00    -0.018 C 
ATOM     16  C4B BYC A   1      46.631  38.061  42.029  0.00  0.00    -0.004 C 
ATOM     17  C5B BYC A   1      45.643  37.145  41.953  0.00  0.00    -0.001 C 
ATOM     18  C6B BYC A   1      45.885  35.835  41.830  0.00  0.00    -0.004 C 
ATOM     19  C7B BYC A   1      47.136  35.349  41.777  0.00  0.00    -0.018 C 
ENDBRANCH  13  14
ENDBRANCH  11  13
ENDBRANCH   3  11
TORSDOF 3
ENDMDL
MODEL 4
REMARK VINA RESULT:      -6.5     10.642     11.486
REMARK  Name = obj01
REMARK  3 active torsions:
REMARK  status: ('A' for Active; 'I' for Inactive)
REMARK    1  A    between atoms: C02_3  and  N03_8
REMARK    2  A    between atoms: C2B_4  and  C07_17
REMARK    3  A    between atoms: N03_8  and  C07_17
REMARK                            x       y       z     vdW  Elec       q    Type
REMARK                         _______ _______ _______ _____ _____    ______ ____
ROOT
ATOM      1  C01 BYC A   1      41.717  28.185  41.245  0.00  0.00    +0.224 C 
ATOM      2  N01 BYC A   1      42.530  28.689  40.304  0.00  0.00    -0.236 NA
ATOM      3  C02 BYC A   1      43.377  27.161  42.445  0.00  0.00    +0.129 C 
ATOM      4  N02 BYC A   1      42.075  27.448  42.303  0.00  0.00    -0.221 NA
ATOM      5  C03 BYC A   1      44.774  28.914  39.496  0.00  0.00    +0.029 C 
ATOM      6  C04 BYC A   1      45.698  27.241  41.542  0.00  0.00    +0.014 C 
ATOM      7  C4A BYC A   1      44.323  27.572  41.477  0.00  0.00    +0.040 C 
ATOM      8  C05 BYC A   1      46.127  28.535  39.535  0.00  0.00    +0.002 C 
ATOM      9  C5M BYC A   1      43.840  28.392  40.425  0.00  0.00    +0.075 C 
ATOM     10  C06 BYC A   1      46.585  27.658  40.537  0.00  0.00    +0.001 C 
ENDROOT
BRANCH   3  11
ATOM     11  N03 BYC A   1      43.785  26.784  43.714  0.00  0.00    -0.328 N 
ATOM     12  H   BYC A   1      44.647  26.254  43.663  0.00  0.00    +0.148 HD
BRANCH  11  13
ATOM     13  C07 BYC A   1      43.741  27.747  44.839  0.00  0.00    +0.115 C 
BRANCH  13  14
ATOM     14  C2B BYC A   1      42.742  27.258  45.910  0.00  0.00    +0.051 C 
ATOM     15  C3B BYC A   1      41.524  28.158  45.873  0.00  0.00    -0.018 C 
ATOM     16  C4B BYC A   1      40.310  27.724  45.519  0.00  0.00    -0.004 C 
ATOM     17  C5B BYC A   1      40.099  26.427  45.208  0.00  0.00    -0.001 C 
ATOM     18  C6B BYC A   1      41.076  25.513  45.240  0.00  0.00    -0.004 C 
ATOM     19  C7B BYC A   1      42.333  25.833  45.587  0.00  0.00    -0.018 C 
ENDBRANCH  13  14
ENDBRANCH  11  13
ENDBRANCH   3  11
TORSDOF 3
ENDMDL
MODEL 5
REMARK VINA RESULT:      -6.5      3.604      5.910
REMARK  Name = obj01
REMARK  3 active torsions:
REMARK  status: ('A' for Active; 'I' for Inactive)
REMARK    1  A    between atoms: C02_3  and  N03_8
REMARK    2  A    between atoms: C2B_4  and  C07_17
REMARK    3  A    between atoms: N03_8  and  C07_17
REMARK                            x       y       z     vdW  Elec       q    Type
REMARK                         _______ _______ _______ _____ _____    ______ ____
ROOT
ATOM      1  C01 BYC A   1      50.120  35.256  42.916  0.00  0.00    +0.224 C 
ATOM      2  N01 BYC A   1      49.960  35.654  41.645  0.00  0.00    -0.236 NA
ATOM      3  C02 BYC A   1      51.644  33.615  42.443  0.00  0.00    +0.129 C 
ATOM      4  N02 BYC A   1      50.926  34.283  43.357  0.00  0.00    -0.221 NA
ATOM      5  C03 BYC A   1      50.583  35.356  39.351  0.00  0.00    +0.029 C 
ATOM      6  C04 BYC A   1      52.191  33.174  40.052  0.00  0.00    +0.014 C 
ATOM      7  C4A BYC A   1      51.507  33.891  41.063  0.00  0.00    +0.040 C 
ATOM      8  C05 BYC A   1      51.221  34.605  38.349  0.00  0.00    +0.002 C 
ATOM      9  C5M BYC A   1      50.664  34.979  40.714  0.00  0.00    +0.075 C 
ATOM     10  C06 BYC A   1      51.993  33.479  38.697  0.00  0.00    +0.001 C 
ENDROOT
BRANCH   3  11
ATOM     11  N03 BYC A   1      52.752  32.932  42.918  0.00  0.00    -0.328 N 
ATOM     12  H   BYC A   1      53.360  32.671  42.150  0.00  0.00    +0.148 HD
BRANCH  11  13
ATOM     13  C07 BYC A   1      53.477  33.409  44.118  0.00  0.00    +0.115 C 
BRANCH  13  14
ATOM     14  C2B BYC A   1      54.890  32.788  44.160  0.00  0.00    +0.051 C 
ATOM     15  C3B BYC A   1      55.238  32.299  42.769  0.00  0.00    -0.018 C 
ATOM     16  C4B BYC A   1      56.231  32.824  42.041  0.00  0.00    -0.004 C 
ATOM     17  C5B BYC A   1      57.011  33.808  42.537  0.00  0.00    -0.001 C 
ATOM     18  C6B BYC A   1      56.843  34.306  43.767  0.00  0.00    -0.004 C 
ATOM     19  C7B BYC A   1      55.883  33.853  44.589  0.00  0.00    -0.018 C 
ENDBRANCH  13  14
ENDBRANCH  11  13
ENDBRANCH   3  11
TORSDOF 3
ENDMDL
MODEL 6
REMARK VINA RESULT:      -6.5     11.129     12.701
REMARK  Name = obj01
REMARK  3 active torsions:
REMARK  status: ('A' for Active; 'I' for Inactive)
REMARK    1  A    between atoms: C02_3  and  N03_8
REMARK    2  A    between atoms: C2B_4  and  C07_17
REMARK    3  A    between atoms: N03_8  and  C07_17
REMARK                            x       y       z     vdW  Elec       q    Type
REMARK                         _______ _______ _______ _____ _____    ______ ____
ROOT
ATOM      1  C01 BYC A   1      40.616  24.950  42.413  0.00  0.00    +0.224 C 
ATOM      2  N01 BYC A   1      40.865  24.987  43.731  0.00  0.00    -0.236 NA
ATOM      3  C02 BYC A   1      40.837  27.205  42.084  0.00  0.00    +0.129 C 
ATOM      4  N02 BYC A   1      40.598  25.989  41.571  0.00  0.00    -0.221 NA
ATOM      5  C03 BYC A   1      41.395  26.333  45.641  0.00  0.00    +0.029 C 
ATOM      6  C04 BYC A   1      41.228  28.649  44.077  0.00  0.00    +0.014 C 
ATOM      7  C4A BYC A   1      41.038  27.383  43.473  0.00  0.00    +0.040 C 
ATOM      8  C05 BYC A   1      41.527  27.596  46.242  0.00  0.00    +0.002 C 
ATOM      9  C5M BYC A   1      41.088  26.206  44.263  0.00  0.00    +0.075 C 
ATOM     10  C06 BYC A   1      41.399  28.763  45.465  0.00  0.00    +0.001 C 
ENDROOT
BRANCH   3  11
ATOM     11  N03 BYC A   1      41.230  28.182  41.185  0.00  0.00    -0.328 N 
ATOM     12  H   BYC A   1      41.235  29.090  41.632  0.00  0.00    +0.148 HD
BRANCH  11  13
ATOM     13  C07 BYC A   1      42.380  27.956  40.279  0.00  0.00    +0.115 C 
BRANCH  13  14
ATOM     14  C2B BYC A   1      43.609  28.742  40.784  0.00  0.00    +0.051 C 
ATOM     15  C3B BYC A   1      44.359  27.872  41.772  0.00  0.00    -0.018 C 
ATOM     16  C4B BYC A   1      45.595  27.415  41.545  0.00  0.00    -0.004 C 
ATOM     17  C5B BYC A   1      46.263  27.745  40.420  0.00  0.00    -0.001 C 
ATOM     18  C6B BYC A   1      45.738  28.540  39.480  0.00  0.00    -0.004 C 
ATOM     19  C7B BYC A   1      44.507  29.062  39.603  0.00  0.00    -0.018 C 
ENDBRANCH  13  14
ENDBRANCH  11  13
ENDBRANCH   3  11
TORSDOF 3
ENDMDL
MODEL 7
REMARK VINA RESULT:      -6.5     12.989     14.354
REMARK  Name = obj01
REMARK  3 active torsions:
REMARK  status: ('A' for Active; 'I' for Inactive)
REMARK    1  A    between atoms: C02_3  and  N03_8
REMARK    2  A    between atoms: C2B_4  and  C07_17
REMARK    3  A    between atoms: N03_8  and  C07_17
REMARK                            x       y       z     vdW  Elec       q    Type
REMARK                         _______ _______ _______ _____ _____    ______ ____
ROOT
ATOM      1  C01 BYC A   1      42.559  25.096  43.109  0.00  0.00    +0.224 C 
ATOM      2  N01 BYC A   1      43.457  25.999  42.688  0.00  0.00    -0.236 NA
ATOM      3  C02 BYC A   1      40.916  25.720  41.642  0.00  0.00    +0.129 C 
ATOM      4  N02 BYC A   1      41.322  24.913  42.633  0.00  0.00    -0.221 NA
ATOM      5  C03 BYC A   1      43.953  27.788  41.175  0.00  0.00    +0.029 C 
ATOM      6  C04 BYC A   1      41.343  27.682  40.167  0.00  0.00    +0.014 C 
ATOM      7  C4A BYC A   1      41.745  26.761  41.164  0.00  0.00    +0.040 C 
ATOM      8  C05 BYC A   1      43.529  28.734  40.225  0.00  0.00    +0.002 C 
ATOM      9  C5M BYC A   1      43.056  26.828  41.704  0.00  0.00    +0.075 C 
ATOM     10  C06 BYC A   1      42.203  28.710  39.751  0.00  0.00    +0.001 C 
ENDROOT
BRANCH   3  11
ATOM     11  N03 BYC A   1      39.845  25.270  40.888  0.00  0.00    -0.328 N 
ATOM     12  H   BYC A   1      39.486  26.018  40.306  0.00  0.00    +0.148 HD
BRANCH  11  13
ATOM     13  C07 BYC A   1      39.899  23.956  40.207  0.00  0.00    +0.115 C 
BRANCH  13  14
ATOM     14  C2B BYC A   1      40.643  24.093  38.861  0.00  0.00    +0.051 C 
ATOM     15  C3B BYC A   1      41.745  23.054  38.816  0.00  0.00    -0.018 C 
ATOM     16  C4B BYC A   1      41.754  22.042  37.942  0.00  0.00    -0.004 C 
ATOM     17  C5B BYC A   1      40.783  21.917  37.013  0.00  0.00    -0.001 C 
ATOM     18  C6B BYC A   1      39.771  22.787  36.909  0.00  0.00    -0.004 C 
ATOM     19  C7B BYC A   1      39.662  23.844  37.729  0.00  0.00    -0.018 C 
ENDBRANCH  13  14
ENDBRANCH  11  13
ENDBRANCH   3  11
TORSDOF 3
ENDMDL
MODEL 8
REMARK VINA RESULT:      -6.4      2.943      4.704
REMARK  Name = obj01
REMARK  3 active torsions:
REMARK  status: ('A' for Active; 'I' for Inactive)
REMARK    1  A    between atoms: C02_3  and  N03_8
REMARK    2  A    between atoms: C2B_4  and  C07_17
REMARK    3  A    between atoms: N03_8  and  C07_17
REMARK                            x       y       z     vdW  Elec       q    Type
REMARK                         _______ _______ _______ _____ _____    ______ ____
ROOT
ATOM      1  C01 BYC A   1      54.565  31.103  37.484  0.00  0.00    +0.224 C 
ATOM      2  N01 BYC A   1      54.166  32.161  36.761  0.00  0.00    -0.236 NA
ATOM      3  C02 BYC A   1      53.107  31.457  39.214  0.00  0.00    +0.129 C 
ATOM      4  N02 BYC A   1      54.082  30.714  38.670  0.00  0.00    -0.221 NA
ATOM      5  C03 BYC A   1      52.691  34.041  36.593  0.00  0.00    +0.029 C 
ATOM      6  C04 BYC A   1      51.674  33.494  39.143  0.00  0.00    +0.014 C 
ATOM      7  C4A BYC A   1      52.652  32.639  38.583  0.00  0.00    +0.040 C 
ATOM      8  C05 BYC A   1      51.761  34.916  37.179  0.00  0.00    +0.002 C 
ATOM      9  C5M BYC A   1      53.198  32.926  37.305  0.00  0.00    +0.075 C 
ATOM     10  C06 BYC A   1      51.282  34.668  38.480  0.00  0.00    +0.001 C 
ENDROOT
BRANCH   3  11
ATOM     11  N03 BYC A   1      52.341  30.840  40.189  0.00  0.00    -0.328 N 
ATOM     12  H   BYC A   1      52.043  29.924  39.875  0.00  0.00    +0.148 HD
BRANCH  11  13
ATOM     13  C07 BYC A   1      52.753  30.879  41.611  0.00  0.00    +0.115 C 
BRANCH  13  14
ATOM     14  C2B BYC A   1      53.662  32.102  41.861  0.00  0.00    +0.051 C 
ATOM     15  C3B BYC A   1      52.924  33.070  42.762  0.00  0.00    -0.018 C 
ATOM     16  C4B BYC A   1      53.333  33.368  44.000  0.00  0.00    -0.004 C 
ATOM     17  C5B BYC A   1      54.469  32.839  44.502  0.00  0.00    -0.001 C 
ATOM     18  C6B BYC A   1      55.243  32.002  43.801  0.00  0.00    -0.004 C 
ATOM     19  C7B BYC A   1      54.934  31.637  42.547  0.00  0.00    -0.018 C 
ENDBRANCH  13  14
ENDBRANCH  11  13
ENDBRANCH   3  11
TORSDOF 3
ENDMDL
MODEL 9
REMARK VINA RESULT:      -6.3     11.272     13.210
REMARK  Name = obj01
REMARK  3 active torsions:
REMARK  status: ('A' for Active; 'I' for Inactive)
REMARK    1  A    between atoms: C02_3  and  N03_8
REMARK    2  A    between atoms: C2B_4  and  C07_17
REMARK    3  A    between atoms: N03_8  and  C07_17
REMARK                            x       y       z     vdW  Elec       q    Type
REMARK                         _______ _______ _______ _____ _____    ______ ____
ROOT
ATOM      1  C01 BYC A   1      43.583  26.613  47.316  0.00  0.00    +0.224 C 
ATOM      2  N01 BYC A   1      42.328  26.448  47.759  0.00  0.00    -0.236 NA
ATOM      3  C02 BYC A   1      42.990  27.593  45.334  0.00  0.00    +0.129 C 
ATOM      4  N02 BYC A   1      43.959  27.167  46.157  0.00  0.00    -0.221 NA
ATOM      5  C03 BYC A   1      39.989  26.753  47.336  0.00  0.00    +0.029 C 
ATOM      6  C04 BYC A   1      40.565  27.776  44.794  0.00  0.00    +0.014 C 
ATOM      7  C4A BYC A   1      41.625  27.406  45.655  0.00  0.00    +0.040 C 
ATOM      8  C05 BYC A   1      38.942  27.070  46.454  0.00  0.00    +0.002 C 
ATOM      9  C5M BYC A   1      41.344  26.856  46.932  0.00  0.00    +0.075 C 
ATOM     10  C06 BYC A   1      39.229  27.542  45.159  0.00  0.00    +0.001 C 
ENDROOT
BRANCH   3  11
ATOM     11  N03 BYC A   1      43.368  28.517  44.373  0.00  0.00    -0.328 N 
ATOM     12  H   BYC A   1      43.207  29.459  44.710  0.00  0.00    +0.148 HD
BRANCH  11  13
ATOM     13  C07 BYC A   1      44.637  28.357  43.628  0.00  0.00    +0.115 C 
BRANCH  13  14
ATOM     14  C2B BYC A   1      44.391  27.544  42.338  0.00  0.00    +0.051 C 
ATOM     15  C3B BYC A   1      43.230  28.171  41.593  0.00  0.00    -0.018 C 
ATOM     16  C4B BYC A   1      43.364  28.748  40.394  0.00  0.00    -0.004 C 
ATOM     17  C5B BYC A   1      44.555  28.765  39.759  0.00  0.00    -0.001 C 
ATOM     18  C6B BYC A   1      45.655  28.211  40.281  0.00  0.00    -0.004 C 
ATOM     19  C7B BYC A   1      45.639  27.599  41.476  0.00  0.00    -0.018 C 
ENDBRANCH  13  14
ENDBRANCH  11  13
ENDBRANCH   3  11
TORSDOF 3
ENDMDL
