MODEL 1
REMARK VINA RESULT:      -8.0      0.000      0.000
REMARK  Name = BYC
REMARK  1 active torsions:
REMARK  status: ('A' for Active; 'I' for Inactive)
REMARK    1  A    between atoms: C2B_3  and  C09_17
REMARK                            x       y       z     vdW  Elec       q    Type
REMARK                         _______ _______ _______ _____ _____    ______ ____
ROOT
ATOM      1  C01 BYC A   1      52.041  32.705  41.970  0.00  0.00    +0.044 C 
ATOM      2  O01 BYC A   1      52.090  33.861  39.779  0.00  0.00    -0.333 OA
ATOM      3  O02 BYC A   1      52.915  30.522  42.207  0.00  0.00    -0.360 OA
ATOM      4  C03 BYC A   1      53.423  30.442  39.383  0.00  0.00    +0.013 C 
ATOM      5  C04 BYC A   1      53.158  32.852  37.916  0.00  0.00    +0.034 C 
ATOM      6  C4A BYC A   1      52.730  32.772  39.243  0.00  0.00    +0.086 C 
ATOM      7  C05 BYC A   1      53.908  30.529  38.062  0.00  0.00    +0.001 C 
ATOM      8  C5M BYC A   1      52.903  31.593  40.005  0.00  0.00    +0.035 C 
ATOM      9  C06 BYC A   1      53.808  31.738  37.347  0.00  0.00    +0.002 C 
ATOM     10  C08 BYC A   1      52.542  31.582  41.437  0.00  0.00    +0.080 C 
ATOM     11  C09 BYC A   1      51.834  33.986  41.193  0.00  0.00    +0.110 C 
ENDROOT
BRANCH  11  12
ATOM     12  C2B BYC A   1      50.423  34.463  41.445  0.00  0.00    -0.015 C 
ATOM     13  C3B BYC A   1      49.820  35.224  40.430  0.00  0.00    +0.007 C 
ATOM     14  C4B BYC A   1      48.513  35.698  40.583  0.00  0.00    +0.000 C 
ATOM     15  C5B BYC A   1      47.807  35.430  41.764  0.00  0.00    +0.000 C 
ATOM     16  C6B BYC A   1      48.429  34.739  42.818  0.00  0.00    +0.000 C 
ATOM     17  C7B BYC A   1      49.749  34.267  42.668  0.00  0.00    +0.007 C 
ENDBRANCH  11  12
TORSDOF 1
ENDMDL
MODEL 2
REMARK VINA RESULT:      -7.6      9.574     10.750
REMARK  Name = BYC
REMARK  1 active torsions:
REMARK  status: ('A' for Active; 'I' for Inactive)
REMARK    1  A    between atoms: C2B_3  and  C09_17
REMARK                            x       y       z     vdW  Elec       q    Type
REMARK                         _______ _______ _______ _____ _____    ______ ____
ROOT
ATOM      1  C01 BYC A   1      41.700  28.266  40.501  0.00  0.00    +0.044 C 
ATOM      2  O01 BYC A   1      43.224  26.731  41.710  0.00  0.00    -0.333 OA
ATOM      3  O02 BYC A   1      42.538  29.799  38.909  0.00  0.00    -0.360 OA
ATOM      4  C03 BYC A   1      45.210  28.966  39.545  0.00  0.00    +0.013 C 
ATOM      5  C04 BYC A   1      45.535  26.669  41.174  0.00  0.00    +0.034 C 
ATOM      6  C4A BYC A   1      44.276  27.248  40.996  0.00  0.00    +0.086 C 
ATOM      7  C05 BYC A   1      46.475  28.357  39.674  0.00  0.00    +0.001 C 
ATOM      8  C5M BYC A   1      44.089  28.362  40.145  0.00  0.00    +0.035 C 
ATOM      9  C06 BYC A   1      46.628  27.194  40.455  0.00  0.00    +0.002 C 
ATOM     10  C08 BYC A   1      42.728  28.876  39.892  0.00  0.00    +0.080 C 
ATOM     11  C09 BYC A   1      41.853  27.077  41.422  0.00  0.00    +0.110 C 
ENDROOT
BRANCH  11  12
ATOM     12  C2B BYC A   1      41.093  27.369  42.694  0.00  0.00    -0.015 C 
ATOM     13  C3B BYC A   1      41.604  28.382  43.521  0.00  0.00    +0.007 C 
ATOM     14  C4B BYC A   1      40.955  28.717  44.714  0.00  0.00    +0.000 C 
ATOM     15  C5B BYC A   1      39.799  28.024  45.097  0.00  0.00    +0.000 C 
ATOM     16  C6B BYC A   1      39.324  26.954  44.318  0.00  0.00    +0.000 C 
ATOM     17  C7B BYC A   1      39.982  26.611  43.120  0.00  0.00    +0.007 C 
ENDBRANCH  11  12
TORSDOF 1
ENDMDL
MODEL 3
REMARK VINA RESULT:      -7.5      2.584      3.894
REMARK  Name = BYC
REMARK  1 active torsions:
REMARK  status: ('A' for Active; 'I' for Inactive)
REMARK    1  A    between atoms: C2B_3  and  C09_17
REMARK                            x       y       z     vdW  Elec       q    Type
REMARK                         _______ _______ _______ _____ _____    ______ ____
ROOT
ATOM      1  C01 BYC A   1      52.172  31.987  42.136  0.00  0.00    +0.044 C 
ATOM      2  O01 BYC A   1      52.753  33.872  43.636  0.00  0.00    -0.333 OA
ATOM      3  O02 BYC A   1      53.819  30.440  41.442  0.00  0.00    -0.360 OA
ATOM      4  C03 BYC A   1      55.816  31.988  42.803  0.00  0.00    +0.013 C 
ATOM      5  C04 BYC A   1      54.945  34.064  44.525  0.00  0.00    +0.034 C 
ATOM      6  C4A BYC A   1      54.045  33.411  43.679  0.00  0.00    +0.086 C 
ATOM      7  C05 BYC A   1      56.721  32.603  43.693  0.00  0.00    +0.001 C 
ATOM      8  C5M BYC A   1      54.454  32.338  42.852  0.00  0.00    +0.035 C 
ATOM      9  C06 BYC A   1      56.279  33.609  44.573  0.00  0.00    +0.002 C 
ATOM     10  C08 BYC A   1      53.453  31.599  42.057  0.00  0.00    +0.080 C 
ATOM     11  C09 BYC A   1      51.691  33.130  43.001  0.00  0.00    +0.110 C 
ENDROOT
BRANCH  11  12
ATOM     12  C2B BYC A   1      50.837  34.037  42.147  0.00  0.00    -0.015 C 
ATOM     13  C3B BYC A   1      49.584  34.403  42.664  0.00  0.00    +0.007 C 
ATOM     14  C4B BYC A   1      48.736  35.245  41.938  0.00  0.00    +0.000 C 
ATOM     15  C5B BYC A   1      49.131  35.711  40.676  0.00  0.00    +0.000 C 
ATOM     16  C6B BYC A   1      50.347  35.287  40.113  0.00  0.00    +0.000 C 
ATOM     17  C7B BYC A   1      51.198  34.432  40.842  0.00  0.00    +0.007 C 
ENDBRANCH  11  12
TORSDOF 1
ENDMDL
MODEL 4
REMARK VINA RESULT:      -7.5      9.895     11.948
REMARK  Name = BYC
REMARK  1 active torsions:
REMARK  status: ('A' for Active; 'I' for Inactive)
REMARK    1  A    between atoms: C2B_3  and  C09_17
REMARK                            x       y       z     vdW  Elec       q    Type
REMARK                         _______ _______ _______ _____ _____    ______ ____
ROOT
ATOM      1  C01 BYC A   1      41.871  27.169  40.508  0.00  0.00    +0.044 C 
ATOM      2  O01 BYC A   1      42.400  28.786  42.309  0.00  0.00    -0.333 OA
ATOM      3  O02 BYC A   1      40.229  25.499  40.823  0.00  0.00    -0.360 OA
ATOM      4  C03 BYC A   1      39.910  26.358  43.543  0.00  0.00    +0.013 C 
ATOM      5  C04 BYC A   1      41.153  28.781  44.328  0.00  0.00    +0.034 C 
ATOM      6  C4A BYC A   1      41.434  28.201  43.088  0.00  0.00    +0.086 C 
ATOM      7  C05 BYC A   1      39.578  26.964  44.773  0.00  0.00    +0.001 C 
ATOM      8  C5M BYC A   1      40.783  27.021  42.660  0.00  0.00    +0.035 C 
ATOM      9  C06 BYC A   1      40.170  28.187  45.145  0.00  0.00    +0.002 C 
ATOM     10  C08 BYC A   1      41.020  26.501  41.299  0.00  0.00    +0.080 C 
ATOM     11  C09 BYC A   1      42.593  28.431  40.924  0.00  0.00    +0.110 C 
ENDROOT
BRANCH  11  12
ATOM     12  C2B BYC A   1      44.061  28.255  40.613  0.00  0.00    -0.015 C 
ATOM     13  C3B BYC A   1      44.807  27.462  41.500  0.00  0.00    +0.007 C 
ATOM     14  C4B BYC A   1      46.172  27.245  41.279  0.00  0.00    +0.000 C 
ATOM     15  C5B BYC A   1      46.802  27.839  40.177  0.00  0.00    +0.000 C 
ATOM     16  C6B BYC A   1      46.084  28.699  39.329  0.00  0.00    +0.000 C 
ATOM     17  C7B BYC A   1      44.711  28.924  39.555  0.00  0.00    +0.007 C 
ENDBRANCH  11  12
TORSDOF 1
ENDMDL
MODEL 5
REMARK VINA RESULT:      -7.4      2.782      5.285
REMARK  Name = BYC
REMARK  1 active torsions:
REMARK  status: ('A' for Active; 'I' for Inactive)
REMARK    1  A    between atoms: C2B_3  and  C09_17
REMARK                            x       y       z     vdW  Elec       q    Type
REMARK                         _______ _______ _______ _____ _____    ______ ____
ROOT
ATOM      1  C01 BYC A   1      51.796  33.506  43.333  0.00  0.00    +0.044 C 
ATOM      2  O01 BYC A   1      52.815  32.490  41.316  0.00  0.00    -0.333 OA
ATOM      3  O02 BYC A   1      50.196  35.236  43.141  0.00  0.00    -0.360 OA
ATOM      4  C03 BYC A   1      50.574  35.240  40.296  0.00  0.00    +0.013 C 
ATOM      5  C04 BYC A   1      52.084  33.132  39.151  0.00  0.00    +0.034 C 
ATOM      6  C4A BYC A   1      52.034  33.307  40.537  0.00  0.00    +0.086 C 
ATOM      7  C05 BYC A   1      50.574  35.039  38.900  0.00  0.00    +0.001 C 
ATOM      8  C5M BYC A   1      51.243  34.321  41.126  0.00  0.00    +0.035 C 
ATOM      9  C06 BYC A   1      51.295  33.969  38.336  0.00  0.00    +0.002 C 
ATOM     10  C08 BYC A   1      51.126  34.403  42.595  0.00  0.00    +0.080 C 
ATOM     11  C09 BYC A   1      52.656  32.409  42.747  0.00  0.00    +0.110 C 
ENDROOT
BRANCH  11  12
ATOM     12  C2B BYC A   1      53.998  32.446  43.441  0.00  0.00    -0.015 C 
ATOM     13  C3B BYC A   1      54.345  33.642  44.089  0.00  0.00    +0.007 C 
ATOM     14  C4B BYC A   1      55.567  33.755  44.760  0.00  0.00    +0.000 C 
ATOM     15  C5B BYC A   1      56.461  32.675  44.767  0.00  0.00    +0.000 C 
ATOM     16  C6B BYC A   1      56.159  31.502  44.054  0.00  0.00    +0.000 C 
ATOM     17  C7B BYC A   1      54.931  31.391  43.372  0.00  0.00    +0.007 C 
ENDBRANCH  11  12
TORSDOF 1
ENDMDL
MODEL 6
REMARK VINA RESULT:      -6.9      9.953     11.788
REMARK  Name = BYC
REMARK  1 active torsions:
REMARK  status: ('A' for Active; 'I' for Inactive)
REMARK    1  A    between atoms: C2B_3  and  C09_17
REMARK                            x       y       z     vdW  Elec       q    Type
REMARK                         _______ _______ _______ _____ _____    ______ ____
ROOT
ATOM      1  C01 BYC A   1      43.889  27.058  43.515  0.00  0.00    +0.044 C 
ATOM      2  O01 BYC A   1      42.583  26.111  41.635  0.00  0.00    -0.333 OA
ATOM      3  O02 BYC A   1      42.807  27.879  45.449  0.00  0.00    -0.360 OA
ATOM      4  C03 BYC A   1      40.265  27.373  44.215  0.00  0.00    +0.013 C 
ATOM      5  C04 BYC A   1      40.229  25.870  41.812  0.00  0.00    +0.034 C 
ATOM      6  C4A BYC A   1      41.434  26.327  42.353  0.00  0.00    +0.086 C 
ATOM      7  C05 BYC A   1      39.050  26.870  43.707  0.00  0.00    +0.001 C 
ATOM      8  C5M BYC A   1      41.473  27.033  43.578  0.00  0.00    +0.035 C 
ATOM      9  C06 BYC A   1      39.038  26.092  42.533  0.00  0.00    +0.002 C 
ATOM     10  C08 BYC A   1      42.773  27.400  44.175  0.00  0.00    +0.080 C 
ATOM     11  C09 BYC A   1      43.895  26.309  42.202  0.00  0.00    +0.110 C 
ENDROOT
BRANCH  11  12
ATOM     12  C2B BYC A   1      44.790  27.055  41.241  0.00  0.00    -0.015 C 
ATOM     13  C3B BYC A   1      44.211  28.119  40.530  0.00  0.00    +0.007 C 
ATOM     14  C4B BYC A   1      44.974  28.865  39.625  0.00  0.00    +0.000 C 
ATOM     15  C5B BYC A   1      46.319  28.536  39.411  0.00  0.00    +0.000 C 
ATOM     16  C6B BYC A   1      46.887  27.423  40.056  0.00  0.00    +0.000 C 
ATOM     17  C7B BYC A   1      46.117  26.667  40.962  0.00  0.00    +0.007 C 
ENDBRANCH  11  12
TORSDOF 1
ENDMDL
MODEL 7
REMARK VINA RESULT:      -6.8      9.763     11.083
REMARK  Name = BYC
REMARK  1 active torsions:
REMARK  status: ('A' for Active; 'I' for Inactive)
REMARK    1  A    between atoms: C2B_3  and  C09_17
REMARK                            x       y       z     vdW  Elec       q    Type
REMARK                         _______ _______ _______ _____ _____    ______ ____
ROOT
ATOM      1  C01 BYC A   1      41.600  27.140  42.164  0.00  0.00    +0.044 C 
ATOM      2  O01 BYC A   1      43.952  26.676  42.789  0.00  0.00    -0.333 OA
ATOM      3  O02 BYC A   1      41.087  28.417  40.243  0.00  0.00    -0.360 OA
ATOM      4  C03 BYC A   1      43.890  28.872  39.823  0.00  0.00    +0.013 C 
ATOM      5  C04 BYC A   1      45.728  27.376  41.379  0.00  0.00    +0.034 C 
ATOM      6  C4A BYC A   1      44.362  27.358  41.671  0.00  0.00    +0.086 C 
ATOM      7  C05 BYC A   1      45.259  28.854  39.487  0.00  0.00    +0.001 C 
ATOM      8  C5M BYC A   1      43.426  28.057  40.873  0.00  0.00    +0.035 C 
ATOM      9  C06 BYC A   1      46.165  28.081  40.239  0.00  0.00    +0.002 C 
ATOM     10  C08 BYC A   1      41.980  27.922  41.144  0.00  0.00    +0.080 C 
ATOM     11  C09 BYC A   1      42.564  26.379  43.046  0.00  0.00    +0.110 C 
ENDROOT
BRANCH  11  12
ATOM     12  C2B BYC A   1      42.210  26.668  44.486  0.00  0.00    -0.015 C 
ATOM     13  C3B BYC A   1      42.679  25.762  45.450  0.00  0.00    +0.007 C 
ATOM     14  C4B BYC A   1      42.400  25.962  46.806  0.00  0.00    +0.000 C 
ATOM     15  C5B BYC A   1      41.628  27.063  47.203  0.00  0.00    +0.000 C 
ATOM     16  C6B BYC A   1      41.086  27.931  46.241  0.00  0.00    +0.000 C 
ATOM     17  C7B BYC A   1      41.361  27.726  44.874  0.00  0.00    +0.007 C 
ENDBRANCH  11  12
TORSDOF 1
ENDMDL
MODEL 8
REMARK VINA RESULT:      -6.5     27.050     28.677
REMARK  Name = BYC
REMARK  1 active torsions:
REMARK  status: ('A' for Active; 'I' for Inactive)
REMARK    1  A    between atoms: C2B_3  and  C09_17
REMARK                            x       y       z     vdW  Elec       q    Type
REMARK                         _______ _______ _______ _____ _____    ______ ____
ROOT
ATOM      1  C01 BYC A   1      57.992  47.318  63.974  0.00  0.00    +0.044 C 
ATOM      2  O01 BYC A   1      59.971  48.382  62.930  0.00  0.00    -0.333 OA
ATOM      3  O02 BYC A   1      56.213  46.505  62.646  0.00  0.00    -0.360 OA
ATOM      4  C03 BYC A   1      57.516  47.537  60.306  0.00  0.00    +0.013 C 
ATOM      5  C04 BYC A   1      60.182  48.462  60.568  0.00  0.00    +0.034 C 
ATOM      6  C4A BYC A   1      59.422  48.142  61.695  0.00  0.00    +0.086 C 
ATOM      7  C05 BYC A   1      58.293  47.805  59.161  0.00  0.00    +0.001 C 
ATOM      8  C5M BYC A   1      58.109  47.629  61.580  0.00  0.00    +0.035 C 
ATOM      9  C06 BYC A   1      59.630  48.230  59.292  0.00  0.00    +0.002 C 
ATOM     10  C08 BYC A   1      57.379  47.195  62.788  0.00  0.00    +0.080 C 
ATOM     11  C09 BYC A   1      59.391  47.864  64.145  0.00  0.00    +0.110 C 
ENDROOT
BRANCH  11  12
ATOM     12  C2B BYC A   1      59.350  48.928  65.218  0.00  0.00    -0.015 C 
ATOM     13  C3B BYC A   1      60.398  49.862  65.226  0.00  0.00    +0.007 C 
ATOM     14  C4B BYC A   1      60.431  50.882  66.183  0.00  0.00    +0.000 C 
ATOM     15  C5B BYC A   1      59.421  50.960  67.152  0.00  0.00    +0.000 C 
ATOM     16  C6B BYC A   1      58.411  49.984  67.203  0.00  0.00    +0.000 C 
ATOM     17  C7B BYC A   1      58.383  48.951  66.244  0.00  0.00    +0.007 C 
ENDBRANCH  11  12
TORSDOF 1
ENDMDL
MODEL 9
REMARK VINA RESULT:      -6.4     10.304     11.732
REMARK  Name = BYC
REMARK  1 active torsions:
REMARK  status: ('A' for Active; 'I' for Inactive)
REMARK    1  A    between atoms: C2B_3  and  C09_17
REMARK                            x       y       z     vdW  Elec       q    Type
REMARK                         _______ _______ _______ _____ _____    ______ ____
ROOT
ATOM      1  C01 BYC A   1      42.443  28.216  44.941  0.00  0.00    +0.044 C 
ATOM      2  O01 BYC A   1      41.469  28.456  42.676  0.00  0.00    -0.333 OA
ATOM      3  O02 BYC A   1      44.767  27.893  45.232  0.00  0.00    -0.360 OA
ATOM      4  C03 BYC A   1      45.087  27.785  42.381  0.00  0.00    +0.013 C 
ATOM      5  C04 BYC A   1      42.876  28.521  40.766  0.00  0.00    +0.034 C 
ATOM      6  C4A BYC A   1      42.730  28.352  42.145  0.00  0.00    +0.086 C 
ATOM      7  C05 BYC A   1      45.256  28.007  40.999  0.00  0.00    +0.001 C 
ATOM      8  C5M BYC A   1      43.834  28.037  42.973  0.00  0.00    +0.035 C 
ATOM      9  C06 BYC A   1      44.164  28.407  40.205  0.00  0.00    +0.002 C 
ATOM     10  C08 BYC A   1      43.663  27.978  44.438  0.00  0.00    +0.080 C 
ATOM     11  C09 BYC A   1      41.235  28.551  44.096  0.00  0.00    +0.110 C 
ENDROOT
BRANCH  11  12
ATOM     12  C2B BYC A   1      40.103  27.644  44.518  0.00  0.00    -0.015 C 
ATOM     13  C3B BYC A   1      39.437  26.944  43.499  0.00  0.00    +0.007 C 
ATOM     14  C4B BYC A   1      38.382  26.079  43.806  0.00  0.00    +0.000 C 
ATOM     15  C5B BYC A   1      37.972  25.925  45.138  0.00  0.00    +0.000 C 
ATOM     16  C6B BYC A   1      38.578  26.682  46.156  0.00  0.00    +0.000 C 
ATOM     17  C7B BYC A   1      39.636  27.559  45.846  0.00  0.00    +0.007 C 
ENDBRANCH  11  12
TORSDOF 1
ENDMDL
