MODEL 1
REMARK VINA RESULT:      -6.3      0.000      0.000
REMARK  Name = BNL
REMARK  0 active torsions:
REMARK  status: ('A' for Active; 'I' for Inactive)
REMARK                            x       y       z     vdW  Elec       q    Type
REMARK                         _______ _______ _______ _____ _____    ______ ____
ROOT
ATOM      1  C01 UNK A   1      44.812  26.823  41.258  0.00  0.00    +0.009 C 
ATOM      2  C02 UNK A   1      46.204  26.742  41.091  0.00  0.00    +0.001 C 
ATOM      3  C09 UNK A   1      44.747  28.711  39.711  0.00  0.00    -0.018 C 
ATOM      4  C10 UNK A   1      46.866  27.636  40.234  0.00  0.00    +0.001 C 
ATOM      5  C11 UNK A   1      44.014  29.696  39.022  0.00  0.00    +0.009 C 
ATOM      6  C12 UNK A   1      42.619  29.771  39.177  0.00  0.00    +0.001 C 
ATOM      7  C13 UNK A   1      41.956  28.875  40.034  0.00  0.00    +0.001 C 
ATOM      8  C14 UNK A   1      42.686  27.900  40.736  0.00  0.00    +0.009 C 
ATOM      9  C15 UNK A   1      44.080  27.810  40.572  0.00  0.00    -0.018 C 
ATOM     10  C03 UNK A   1      46.140  28.619  39.545  0.00  0.00    +0.009 C 
ENDROOT
TORSDOF 0
ENDMDL
MODEL 2
REMARK VINA RESULT:      -6.3      0.029      4.028
REMARK  Name = BNL
REMARK  0 active torsions:
REMARK  status: ('A' for Active; 'I' for Inactive)
REMARK                            x       y       z     vdW  Elec       q    Type
REMARK                         _______ _______ _______ _____ _____    ______ ____
ROOT
ATOM      1  C01 UNK A   1      44.027  29.685  39.038  0.00  0.00    +0.009 C 
ATOM      2  C02 UNK A   1      42.636  29.773  39.198  0.00  0.00    +0.001 C 
ATOM      3  C09 UNK A   1      44.076  27.789  40.575  0.00  0.00    -0.018 C 
ATOM      4  C10 UNK A   1      41.963  28.871  40.039  0.00  0.00    +0.001 C 
ATOM      5  C11 UNK A   1      44.800  26.797  41.262  0.00  0.00    +0.009 C 
ATOM      6  C12 UNK A   1      46.192  26.699  41.093  0.00  0.00    +0.001 C 
ATOM      7  C13 UNK A   1      46.864  27.601  40.250  0.00  0.00    +0.001 C 
ATOM      8  C14 UNK A   1      46.147  28.603  39.575  0.00  0.00    +0.009 C 
ATOM      9  C15 UNK A   1      44.752  28.696  39.728  0.00  0.00    -0.018 C 
ATOM     10  C03 UNK A   1      42.681  27.879  40.726  0.00  0.00    +0.009 C 
ENDROOT
TORSDOF 0
ENDMDL
MODEL 3
REMARK VINA RESULT:      -6.2      0.121      3.446
REMARK  Name = BNL
REMARK  0 active torsions:
REMARK  status: ('A' for Active; 'I' for Inactive)
REMARK                            x       y       z     vdW  Elec       q    Type
REMARK                         _______ _______ _______ _____ _____    ______ ____
ROOT
ATOM      1  C01 UNK A   1      42.647  28.073  40.764  0.00  0.00    +0.009 C 
ATOM      2  C02 UNK A   1      41.958  29.058  40.039  0.00  0.00    +0.001 C 
ATOM      3  C09 UNK A   1      44.734  28.762  39.701  0.00  0.00    -0.018 C 
ATOM      4  C10 UNK A   1      42.653  29.897  39.152  0.00  0.00    +0.001 C 
ATOM      5  C11 UNK A   1      46.124  28.610  39.536  0.00  0.00    +0.009 C 
ATOM      6  C12 UNK A   1      46.817  27.633  40.270  0.00  0.00    +0.001 C 
ATOM      7  C13 UNK A   1      46.121  26.795  41.159  0.00  0.00    +0.001 C 
ATOM      8  C14 UNK A   1      44.731  26.932  41.316  0.00  0.00    +0.009 C 
ATOM      9  C15 UNK A   1      44.035  27.919  40.595  0.00  0.00    -0.018 C 
ATOM     10  C03 UNK A   1      44.039  29.750  38.983  0.00  0.00    +0.009 C 
ENDROOT
TORSDOF 0
ENDMDL
MODEL 4
REMARK VINA RESULT:      -6.2      0.199      2.094
REMARK  Name = BNL
REMARK  0 active torsions:
REMARK  status: ('A' for Active; 'I' for Inactive)
REMARK                            x       y       z     vdW  Elec       q    Type
REMARK                         _______ _______ _______ _____ _____    ______ ____
ROOT
ATOM      1  C01 UNK A   1      46.022  28.776  39.491  0.00  0.00    +0.009 C 
ATOM      2  C02 UNK A   1      46.854  27.873  40.170  0.00  0.00    +0.001 C 
ATOM      3  C09 UNK A   1      44.074  27.792  40.584  0.00  0.00    -0.018 C 
ATOM      4  C10 UNK A   1      46.301  26.934  41.058  0.00  0.00    +0.001 C 
ATOM      5  C11 UNK A   1      42.682  27.755  40.788  0.00  0.00    +0.009 C 
ATOM      6  C12 UNK A   1      41.848  28.667  40.119  0.00  0.00    +0.001 C 
ATOM      7  C13 UNK A   1      42.402  29.607  39.232  0.00  0.00    +0.001 C 
ATOM      8  C14 UNK A   1      43.790  29.637  39.012  0.00  0.00    +0.009 C 
ATOM      9  C15 UNK A   1      44.630  28.737  39.692  0.00  0.00    -0.018 C 
ATOM     10  C03 UNK A   1      44.914  26.893  41.265  0.00  0.00    +0.009 C 
ENDROOT
TORSDOF 0
ENDMDL
MODEL 5
REMARK VINA RESULT:      -6.2      8.585      8.696
REMARK  Name = BNL
REMARK  0 active torsions:
REMARK  status: ('A' for Active; 'I' for Inactive)
REMARK                            x       y       z     vdW  Elec       q    Type
REMARK                         _______ _______ _______ _____ _____    ______ ____
ROOT
ATOM      1  C01 UNK A   1      50.942  33.525  43.257  0.00  0.00    +0.009 C 
ATOM      2  C02 UNK A   1      52.106  32.919  42.761  0.00  0.00    +0.001 C 
ATOM      3  C09 UNK A   1      50.510  34.479  41.051  0.00  0.00    -0.018 C 
ATOM      4  C10 UNK A   1      52.471  33.085  41.414  0.00  0.00    +0.001 C 
ATOM      5  C11 UNK A   1      49.708  35.260  40.198  0.00  0.00    +0.009 C 
ATOM      6  C12 UNK A   1      48.535  35.858  40.689  0.00  0.00    +0.001 C 
ATOM      7  C13 UNK A   1      48.169  35.690  42.036  0.00  0.00    +0.001 C 
ATOM      8  C14 UNK A   1      48.976  34.924  42.895  0.00  0.00    +0.009 C 
ATOM      9  C15 UNK A   1      50.142  34.310  42.405  0.00  0.00    -0.018 C 
ATOM     10  C03 UNK A   1      51.675  33.863  40.560  0.00  0.00    +0.009 C 
ENDROOT
TORSDOF 0
ENDMDL
MODEL 6
REMARK VINA RESULT:      -6.2      8.963      9.276
REMARK  Name = BNL
REMARK  0 active torsions:
REMARK  status: ('A' for Active; 'I' for Inactive)
REMARK                            x       y       z     vdW  Elec       q    Type
REMARK                         _______ _______ _______ _____ _____    ______ ____
ROOT
ATOM      1  C01 UNK A   1      50.556  34.559  38.851  0.00  0.00    +0.009 C 
ATOM      2  C02 UNK A   1      51.497  33.633  38.375  0.00  0.00    +0.001 C 
ATOM      3  C09 UNK A   1      51.239  34.062  41.142  0.00  0.00    -0.018 C 
ATOM      4  C10 UNK A   1      52.311  32.926  39.276  0.00  0.00    +0.001 C 
ATOM      5  C11 UNK A   1      51.106  34.280  42.526  0.00  0.00    +0.009 C 
ATOM      6  C12 UNK A   1      50.173  35.216  43.005  0.00  0.00    +0.001 C 
ATOM      7  C13 UNK A   1      49.360  35.924  42.102  0.00  0.00    +0.001 C 
ATOM      8  C14 UNK A   1      49.478  35.698  40.720  0.00  0.00    +0.009 C 
ATOM      9  C15 UNK A   1      50.421  34.774  40.236  0.00  0.00    -0.018 C 
ATOM     10  C03 UNK A   1      52.183  33.140  40.657  0.00  0.00    +0.009 C 
ENDROOT
TORSDOF 0
ENDMDL
MODEL 7
REMARK VINA RESULT:      -6.0      9.015      9.412
REMARK  Name = BNL
REMARK  0 active torsions:
REMARK  status: ('A' for Active; 'I' for Inactive)
REMARK                            x       y       z     vdW  Elec       q    Type
REMARK                         _______ _______ _______ _____ _____    ______ ____
ROOT
ATOM      1  C01 UNK A   1      51.621  33.671  42.423  0.00  0.00    +0.009 C 
ATOM      2  C02 UNK A   1      50.804  34.535  43.168  0.00  0.00    +0.001 C 
ATOM      3  C09 UNK A   1      50.686  34.582  40.359  0.00  0.00    -0.018 C 
ATOM      4  C10 UNK A   1      49.934  35.424  42.515  0.00  0.00    +0.001 C 
ATOM      5  C11 UNK A   1      50.630  34.602  38.953  0.00  0.00    +0.009 C 
ATOM      6  C12 UNK A   1      51.456  33.747  38.204  0.00  0.00    +0.001 C 
ATOM      7  C13 UNK A   1      52.328  32.858  38.858  0.00  0.00    +0.001 C 
ATOM      8  C14 UNK A   1      52.375  32.823  40.263  0.00  0.00    +0.009 C 
ATOM      9  C15 UNK A   1      51.562  33.688  41.016  0.00  0.00    -0.018 C 
ATOM     10  C03 UNK A   1      49.875  35.449  41.112  0.00  0.00    +0.009 C 
ENDROOT
TORSDOF 0
ENDMDL
MODEL 8
REMARK VINA RESULT:      -5.8      0.863      3.381
REMARK  Name = BNL
REMARK  0 active torsions:
REMARK  status: ('A' for Active; 'I' for Inactive)
REMARK                            x       y       z     vdW  Elec       q    Type
REMARK                         _______ _______ _______ _____ _____    ______ ____
ROOT
ATOM      1  C01 UNK A   1      43.449  26.508  41.860  0.00  0.00    +0.009 C 
ATOM      2  C02 UNK A   1      42.110  26.924  41.801  0.00  0.00    +0.001 C 
ATOM      3  C09 UNK A   1      44.054  28.259  40.269  0.00  0.00    -0.018 C 
ATOM      4  C10 UNK A   1      41.742  28.006  40.984  0.00  0.00    +0.001 C 
ATOM      5  C11 UNK A   1      45.031  28.924  39.505  0.00  0.00    +0.009 C 
ATOM      6  C12 UNK A   1      46.374  28.518  39.572  0.00  0.00    +0.001 C 
ATOM      7  C13 UNK A   1      46.743  27.436  40.391  0.00  0.00    +0.001 C 
ATOM      8  C14 UNK A   1      45.768  26.758  41.145  0.00  0.00    +0.009 C 
ATOM      9  C15 UNK A   1      44.425  27.171  41.092  0.00  0.00    -0.018 C 
ATOM     10  C03 UNK A   1      42.712  28.673  40.219  0.00  0.00    +0.009 C 
ENDROOT
TORSDOF 0
ENDMDL
MODEL 9
REMARK VINA RESULT:      -5.6     19.299     21.274
REMARK  Name = BNL
REMARK  0 active torsions:
REMARK  status: ('A' for Active; 'I' for Inactive)
REMARK                            x       y       z     vdW  Elec       q    Type
REMARK                         _______ _______ _______ _____ _____    ______ ____
ROOT
ATOM      1  C01 UNK A   1      34.034  45.282  37.376  0.00  0.00    +0.009 C 
ATOM      2  C02 UNK A   1      33.695  44.031  37.914  0.00  0.00    +0.001 C 
ATOM      3  C09 UNK A   1      33.496  46.336  39.512  0.00  0.00    -0.018 C 
ATOM      4  C10 UNK A   1      33.263  43.928  39.248  0.00  0.00    +0.001 C 
ATOM      5  C11 UNK A   1      33.399  47.493  40.309  0.00  0.00    +0.009 C 
ATOM      6  C12 UNK A   1      33.749  48.745  39.776  0.00  0.00    +0.001 C 
ATOM      7  C13 UNK A   1      34.183  48.846  38.442  0.00  0.00    +0.001 C 
ATOM      8  C14 UNK A   1      34.267  47.696  37.639  0.00  0.00    +0.009 C 
ATOM      9  C15 UNK A   1      33.932  46.439  38.172  0.00  0.00    -0.018 C 
ATOM     10  C03 UNK A   1      33.164  45.078  40.046  0.00  0.00    +0.009 C 
ENDROOT
TORSDOF 0
ENDMDL
