MODEL 1
REMARK VINA RESULT:      -7.2      0.000      0.000
REMARK  Name = QAP
REMARK  2 active torsions:
REMARK  status: ('A' for Active; 'I' for Inactive)
REMARK    1  A    between atoms: C2_1  and  N01_25
REMARK    2  A    between atoms: C6_4  and  C12_10
REMARK                            x       y       z     vdW  Elec       q    Type
REMARK                         _______ _______ _______ _____ _____    ______ ____
ROOT
ATOM      1  C12 QAP A   1      49.567  35.284  42.402  0.00  0.00    +0.247 C 
ATOM      2  H01 QAP A   1      48.458  34.952  40.688  0.00  0.00    +0.156 HD
ATOM      3  N01 QAP A   1      48.491  35.468  41.561  0.00  0.00    -0.281 N 
ATOM      4  O01 QAP A   1      49.645  35.865  43.473  0.00  0.00    -0.272 OA
ENDROOT
BRANCH   3   5
ATOM      5  C2  QAP A   1      47.531  36.487  41.734  0.00  0.00    +0.033 A 
ATOM      6  C4  QAP A   1      47.903  37.843  41.752  0.00  0.00    +0.024 A 
ATOM      7  C5  QAP A   1      46.181  36.125  41.842  0.00  0.00    +0.024 A 
ATOM      8  C7  QAP A   1      46.925  38.835  41.949  0.00  0.00    +0.002 A 
ATOM      9  C8  QAP A   1      45.201  37.109  42.036  0.00  0.00    +0.002 A 
ATOM     10  C9  QAP A   1      45.577  38.463  42.109  0.00  0.00    +0.000 A 
ENDBRANCH   3   5
BRANCH   1  11
ATOM     11  C6  QAP A   1      50.676  34.398  41.906  0.00  0.00    +0.037 A 
ATOM     12  C10 QAP A   1      51.022  34.462  40.545  0.00  0.00    +0.013 A 
ATOM     13  C11 QAP A   1      51.320  33.453  42.735  0.00  0.00    +0.013 A 
ATOM     14  C13 QAP A   1      51.963  33.576  40.001  0.00  0.00    +0.001 A 
ATOM     15  C15 QAP A   1      52.580  32.622  40.823  0.00  0.00    +0.000 A 
ATOM     16  C16 QAP A   1      52.262  32.564  42.193  0.00  0.00    +0.001 A 
ENDBRANCH   1  11
TORSDOF 2
ENDMDL
MODEL 2
REMARK VINA RESULT:      -7.1      2.525      7.253
REMARK  Name = QAP
REMARK  2 active torsions:
REMARK  status: ('A' for Active; 'I' for Inactive)
REMARK    1  A    between atoms: C2_1  and  N01_25
REMARK    2  A    between atoms: C6_4  and  C12_10
REMARK                            x       y       z     vdW  Elec       q    Type
REMARK                         _______ _______ _______ _____ _____    ______ ____
ROOT
ATOM      1  C12 QAP A   1      51.698  33.663  42.496  0.00  0.00    +0.247 C 
ATOM      2  H01 QAP A   1      52.176  33.010  40.593  0.00  0.00    +0.156 HD
ATOM      3  N01 QAP A   1      52.425  32.942  41.574  0.00  0.00    -0.281 N 
ATOM      4  O01 QAP A   1      51.970  33.633  43.686  0.00  0.00    -0.272 OA
ENDROOT
BRANCH   3   5
ATOM      5  C2  QAP A   1      53.365  31.950  41.925  0.00  0.00    +0.033 A 
ATOM      6  C4  QAP A   1      52.971  30.619  42.143  0.00  0.00    +0.024 A 
ATOM      7  C5  QAP A   1      54.718  32.308  42.007  0.00  0.00    +0.024 A 
ATOM      8  C7  QAP A   1      53.928  29.657  42.514  0.00  0.00    +0.002 A 
ATOM      9  C8  QAP A   1      55.679  31.353  42.374  0.00  0.00    +0.002 A 
ATOM     10  C9  QAP A   1      55.279  30.032  42.646  0.00  0.00    +0.000 A 
ENDBRANCH   3   5
BRANCH   1  11
ATOM     11  C6  QAP A   1      50.507  34.422  41.981  0.00  0.00    +0.037 A 
ATOM     12  C10 QAP A   1      49.328  34.412  42.747  0.00  0.00    +0.013 A 
ATOM     13  C11 QAP A   1      50.505  35.071  40.726  0.00  0.00    +0.013 A 
ATOM     14  C13 QAP A   1      48.151  35.000  42.261  0.00  0.00    +0.001 A 
ATOM     15  C15 QAP A   1      48.148  35.619  41.003  0.00  0.00    +0.000 A 
ATOM     16  C16 QAP A   1      49.327  35.659  40.237  0.00  0.00    +0.001 A 
ENDBRANCH   1  11
TORSDOF 2
ENDMDL
MODEL 3
REMARK VINA RESULT:      -7.0      2.247      3.632
REMARK  Name = QAP
REMARK  2 active torsions:
REMARK  status: ('A' for Active; 'I' for Inactive)
REMARK    1  A    between atoms: C2_1  and  N01_25
REMARK    2  A    between atoms: C6_4  and  C12_10
REMARK                            x       y       z     vdW  Elec       q    Type
REMARK                         _______ _______ _______ _____ _____    ______ ____
ROOT
ATOM      1  C12 QAP A   1      51.364  34.731  39.609  0.00  0.00    +0.247 C 
ATOM      2  H01 QAP A   1      50.964  33.467  41.196  0.00  0.00    +0.156 HD
ATOM      3  N01 QAP A   1      50.787  34.390  40.812  0.00  0.00    -0.281 N 
ATOM      4  O01 QAP A   1      51.200  35.835  39.114  0.00  0.00    -0.272 OA
ENDROOT
BRANCH   3   5
ATOM      5  C2  QAP A   1      49.794  35.164  41.448  0.00  0.00    +0.033 A 
ATOM      6  C4  QAP A   1      48.540  35.376  40.849  0.00  0.00    +0.024 A 
ATOM      7  C5  QAP A   1      50.063  35.686  42.721  0.00  0.00    +0.024 A 
ATOM      8  C7  QAP A   1      47.578  36.171  41.498  0.00  0.00    +0.002 A 
ATOM      9  C8  QAP A   1      49.108  36.478  43.376  0.00  0.00    +0.002 A 
ATOM     10  C9  QAP A   1      47.873  36.735  42.753  0.00  0.00    +0.000 A 
ENDBRANCH   3   5
BRANCH   1  11
ATOM     11  C6  QAP A   1      52.138  33.657  38.895  0.00  0.00    +0.037 A 
ATOM     12  C10 QAP A   1      52.387  32.452  39.575  0.00  0.00    +0.013 A 
ATOM     13  C11 QAP A   1      52.688  33.847  37.608  0.00  0.00    +0.013 A 
ATOM     14  C13 QAP A   1      53.204  31.463  39.007  0.00  0.00    +0.001 A 
ATOM     15  C15 QAP A   1      53.770  31.669  37.740  0.00  0.00    +0.000 A 
ATOM     16  C16 QAP A   1      53.508  32.859  37.038  0.00  0.00    +0.001 A 
ENDBRANCH   1  11
TORSDOF 2
ENDMDL
MODEL 4
REMARK VINA RESULT:      -6.9      2.616      4.125
REMARK  Name = QAP
REMARK  2 active torsions:
REMARK  status: ('A' for Active; 'I' for Inactive)
REMARK    1  A    between atoms: C2_1  and  N01_25
REMARK    2  A    between atoms: C6_4  and  C12_10
REMARK                            x       y       z     vdW  Elec       q    Type
REMARK                         _______ _______ _______ _____ _____    ______ ____
ROOT
ATOM      1  C12 QAP A   1      52.310  33.147  42.028  0.00  0.00    +0.247 C 
ATOM      2  H01 QAP A   1      51.929  34.595  43.453  0.00  0.00    +0.156 HD
ATOM      3  N01 QAP A   1      51.615  34.205  42.571  0.00  0.00    -0.281 N 
ATOM      4  O01 QAP A   1      51.986  32.654  40.958  0.00  0.00    -0.272 OA
ENDROOT
BRANCH   3   5
ATOM      5  C2  QAP A   1      50.367  34.650  42.087  0.00  0.00    +0.033 A 
ATOM      6  C4  QAP A   1      49.184  34.436  42.816  0.00  0.00    +0.024 A 
ATOM      7  C5  QAP A   1      50.330  35.356  40.876  0.00  0.00    +0.024 A 
ATOM      8  C7  QAP A   1      47.952  34.872  42.297  0.00  0.00    +0.002 A 
ATOM      9  C8  QAP A   1      49.105  35.796  40.353  0.00  0.00    +0.002 A 
ATOM     10  C9  QAP A   1      47.914  35.536  41.056  0.00  0.00    +0.000 A 
ENDBRANCH   3   5
BRANCH   1  11
ATOM     11  C6  QAP A   1      53.434  32.576  42.847  0.00  0.00    +0.037 A 
ATOM     12  C10 QAP A   1      53.864  33.292  43.978  0.00  0.00    +0.013 A 
ATOM     13  C11 QAP A   1      54.121  31.399  42.477  0.00  0.00    +0.013 A 
ATOM     14  C13 QAP A   1      54.984  32.872  44.710  0.00  0.00    +0.001 A 
ATOM     15  C15 QAP A   1      55.678  31.716  44.322  0.00  0.00    +0.000 A 
ATOM     16  C16 QAP A   1      55.243  30.977  43.207  0.00  0.00    +0.001 A 
ENDBRANCH   1  11
TORSDOF 2
ENDMDL
MODEL 5
REMARK VINA RESULT:      -6.5      9.385     10.222
REMARK  Name = QAP
REMARK  2 active torsions:
REMARK  status: ('A' for Active; 'I' for Inactive)
REMARK    1  A    between atoms: C2_1  and  N01_25
REMARK    2  A    between atoms: C6_4  and  C12_10
REMARK                            x       y       z     vdW  Elec       q    Type
REMARK                         _______ _______ _______ _____ _____    ______ ____
ROOT
ATOM      1  C12 QAP A   1      43.188  27.583  42.090  0.00  0.00    +0.247 C 
ATOM      2  H01 QAP A   1      43.802  29.130  43.317  0.00  0.00    +0.156 HD
ATOM      3  N01 QAP A   1      43.137  28.370  43.219  0.00  0.00    -0.281 N 
ATOM      4  O01 QAP A   1      42.397  26.669  41.914  0.00  0.00    -0.272 OA
ENDROOT
BRANCH   3   5
ATOM      5  C2  QAP A   1      42.354  28.060  44.351  0.00  0.00    +0.033 A 
ATOM      6  C4  QAP A   1      42.885  27.325  45.426  0.00  0.00    +0.024 A 
ATOM      7  C5  QAP A   1      41.038  28.542  44.409  0.00  0.00    +0.024 A 
ATOM      8  C7  QAP A   1      42.072  27.012  46.530  0.00  0.00    +0.002 A 
ATOM      9  C8  QAP A   1      40.223  28.236  45.509  0.00  0.00    +0.002 A 
ATOM     10  C9  QAP A   1      40.736  27.454  46.560  0.00  0.00    +0.000 A 
ENDBRANCH   3   5
BRANCH   1  11
ATOM     11  C6  QAP A   1      44.310  27.849  41.124  0.00  0.00    +0.037 A 
ATOM     12  C10 QAP A   1      45.571  27.293  41.399  0.00  0.00    +0.013 A 
ATOM     13  C11 QAP A   1      44.162  28.698  40.005  0.00  0.00    +0.013 A 
ATOM     14  C13 QAP A   1      46.682  27.605  40.602  0.00  0.00    +0.001 A 
ATOM     15  C15 QAP A   1      46.535  28.470  39.507  0.00  0.00    +0.000 A 
ATOM     16  C16 QAP A   1      45.272  29.013  39.206  0.00  0.00    +0.001 A 
ENDBRANCH   1  11
TORSDOF 2
ENDMDL
MODEL 6
REMARK VINA RESULT:      -6.5      9.509     10.315
REMARK  Name = QAP
REMARK  2 active torsions:
REMARK  status: ('A' for Active; 'I' for Inactive)
REMARK    1  A    between atoms: C2_1  and  N01_25
REMARK    2  A    between atoms: C6_4  and  C12_10
REMARK                            x       y       z     vdW  Elec       q    Type
REMARK                         _______ _______ _______ _____ _____    ______ ____
ROOT
ATOM      1  C12 QAP A   1      43.219  27.456  42.283  0.00  0.00    +0.247 C 
ATOM      2  H01 QAP A   1      43.361  29.237  43.322  0.00  0.00    +0.156 HD
ATOM      3  N01 QAP A   1      42.889  28.340  43.286  0.00  0.00    -0.281 N 
ATOM      4  O01 QAP A   1      42.665  26.371  42.182  0.00  0.00    -0.272 OA
ENDROOT
BRANCH   3   5
ATOM      5  C2  QAP A   1      42.084  28.000  44.393  0.00  0.00    +0.033 A 
ATOM      6  C4  QAP A   1      40.692  28.199  44.372  0.00  0.00    +0.024 A 
ATOM      7  C5  QAP A   1      42.694  27.410  45.509  0.00  0.00    +0.024 A 
ATOM      8  C7  QAP A   1      39.920  27.870  45.500  0.00  0.00    +0.002 A 
ATOM      9  C8  QAP A   1      41.929  27.076  46.637  0.00  0.00    +0.002 A 
ATOM     10  C9  QAP A   1      40.545  27.325  46.638  0.00  0.00    +0.000 A 
ENDBRANCH   3   5
BRANCH   1  11
ATOM     11  C6  QAP A   1      44.346  27.850  41.369  0.00  0.00    +0.037 A 
ATOM     12  C10 QAP A   1      44.053  28.674  40.268  0.00  0.00    +0.013 A 
ATOM     13  C11 QAP A   1      45.660  27.358  41.529  0.00  0.00    +0.013 A 
ATOM     14  C13 QAP A   1      45.037  28.976  39.315  0.00  0.00    +0.001 A 
ATOM     15  C15 QAP A   1      46.334  28.463  39.466  0.00  0.00    +0.000 A 
ATOM     16  C16 QAP A   1      46.647  27.658  40.576  0.00  0.00    +0.001 A 
ENDBRANCH   1  11
TORSDOF 2
ENDMDL
MODEL 7
REMARK VINA RESULT:      -6.4      2.357      6.731
REMARK  Name = QAP
REMARK  2 active torsions:
REMARK  status: ('A' for Active; 'I' for Inactive)
REMARK    1  A    between atoms: C2_1  and  N01_25
REMARK    2  A    between atoms: C6_4  and  C12_10
REMARK                            x       y       z     vdW  Elec       q    Type
REMARK                         _______ _______ _______ _____ _____    ______ ____
ROOT
ATOM      1  C12 QAP A   1      51.494  33.998  41.082  0.00  0.00    +0.247 C 
ATOM      2  H01 QAP A   1      50.933  34.270  39.110  0.00  0.00    +0.156 HD
ATOM      3  N01 QAP A   1      51.589  33.797  39.722  0.00  0.00    -0.281 N 
ATOM      4  O01 QAP A   1      52.273  33.469  41.860  0.00  0.00    -0.272 OA
ENDROOT
BRANCH   3   5
ATOM      5  C2  QAP A   1      52.410  32.811  39.135  0.00  0.00    +0.033 A 
ATOM      6  C4  QAP A   1      53.187  33.093  37.998  0.00  0.00    +0.024 A 
ATOM      7  C5  QAP A   1      52.474  31.547  39.737  0.00  0.00    +0.024 A 
ATOM      8  C7  QAP A   1      53.978  32.083  37.422  0.00  0.00    +0.002 A 
ATOM      9  C8  QAP A   1      53.262  30.535  39.169  0.00  0.00    +0.002 A 
ATOM     10  C9  QAP A   1      53.999  30.799  38.000  0.00  0.00    +0.000 A 
ENDBRANCH   3   5
BRANCH   1  11
ATOM     11  C6  QAP A   1      50.341  34.831  41.569  0.00  0.00    +0.037 A 
ATOM     12  C10 QAP A   1      49.365  35.228  40.637  0.00  0.00    +0.013 A 
ATOM     13  C11 QAP A   1      50.249  35.295  42.900  0.00  0.00    +0.013 A 
ATOM     14  C13 QAP A   1      48.334  36.104  41.007  0.00  0.00    +0.001 A 
ATOM     15  C15 QAP A   1      48.263  36.582  42.324  0.00  0.00    +0.000 A 
ATOM     16  C16 QAP A   1      49.219  36.174  43.272  0.00  0.00    +0.001 A 
ENDBRANCH   1  11
TORSDOF 2
ENDMDL
MODEL 8
REMARK VINA RESULT:      -6.3      2.208      3.362
REMARK  Name = QAP
REMARK  2 active torsions:
REMARK  status: ('A' for Active; 'I' for Inactive)
REMARK    1  A    between atoms: C2_1  and  N01_25
REMARK    2  A    between atoms: C6_4  and  C12_10
REMARK                            x       y       z     vdW  Elec       q    Type
REMARK                         _______ _______ _______ _____ _____    ______ ____
ROOT
ATOM      1  C12 QAP A   1      51.604  33.456  42.927  0.00  0.00    +0.247 C 
ATOM      2  H01 QAP A   1      52.125  34.952  41.598  0.00  0.00    +0.156 HD
ATOM      3  N01 QAP A   1      51.351  34.525  42.096  0.00  0.00    -0.281 N 
ATOM      4  O01 QAP A   1      50.705  32.894  43.534  0.00  0.00    -0.272 OA
ENDROOT
BRANCH   3   5
ATOM      5  C2  QAP A   1      50.115  35.203  42.051  0.00  0.00    +0.033 A 
ATOM      6  C4  QAP A   1      49.272  35.109  40.930  0.00  0.00    +0.024 A 
ATOM      7  C5  QAP A   1      49.715  35.943  43.173  0.00  0.00    +0.024 A 
ATOM      8  C7  QAP A   1      48.056  35.815  40.906  0.00  0.00    +0.002 A 
ATOM      9  C8  QAP A   1      48.501  36.647  43.157  0.00  0.00    +0.002 A 
ATOM     10  C9  QAP A   1      47.682  36.597  42.015  0.00  0.00    +0.000 A 
ENDBRANCH   3   5
BRANCH   1  11
ATOM     11  C6  QAP A   1      53.043  33.064  43.116  0.00  0.00    +0.037 A 
ATOM     12  C10 QAP A   1      53.686  32.369  42.077  0.00  0.00    +0.013 A 
ATOM     13  C11 QAP A   1      53.740  33.296  44.323  0.00  0.00    +0.013 A 
ATOM     14  C13 QAP A   1      54.987  31.873  42.243  0.00  0.00    +0.001 A 
ATOM     15  C15 QAP A   1      55.665  32.083  43.454  0.00  0.00    +0.000 A 
ATOM     16  C16 QAP A   1      55.043  32.799  44.492  0.00  0.00    +0.001 A 
ENDBRANCH   1  11
TORSDOF 2
ENDMDL
MODEL 9
REMARK VINA RESULT:      -6.3      3.112      7.520
REMARK  Name = QAP
REMARK  2 active torsions:
REMARK  status: ('A' for Active; 'I' for Inactive)
REMARK    1  A    between atoms: C2_1  and  N01_25
REMARK    2  A    between atoms: C6_4  and  C12_10
REMARK                            x       y       z     vdW  Elec       q    Type
REMARK                         _______ _______ _______ _____ _____    ______ ____
ROOT
ATOM      1  C12 QAP A   1      52.411  32.896  41.306  0.00  0.00    +0.247 C 
ATOM      2  H01 QAP A   1      51.855  32.175  43.163  0.00  0.00    +0.156 HD
ATOM      3  N01 QAP A   1      52.561  32.122  42.435  0.00  0.00    -0.281 N 
ATOM      4  O01 QAP A   1      53.221  32.853  40.392  0.00  0.00    -0.272 OA
ENDROOT
BRANCH   3   5
ATOM      5  C2  QAP A   1      53.740  31.412  42.744  0.00  0.00    +0.033 A 
ATOM      6  C4  QAP A   1      54.807  32.030  43.420  0.00  0.00    +0.024 A 
ATOM      7  C5  QAP A   1      53.814  30.054  42.404  0.00  0.00    +0.024 A 
ATOM      8  C7  QAP A   1      55.978  31.302  43.694  0.00  0.00    +0.002 A 
ATOM      9  C8  QAP A   1      54.979  29.321  42.676  0.00  0.00    +0.002 A 
ATOM     10  C9  QAP A   1      56.068  29.952  43.304  0.00  0.00    +0.000 A 
ENDBRANCH   3   5
BRANCH   1  11
ATOM     11  C6  QAP A   1      51.252  33.854  41.284  0.00  0.00    +0.037 A 
ATOM     12  C10 QAP A   1      50.961  34.520  40.081  0.00  0.00    +0.013 A 
ATOM     13  C11 QAP A   1      50.505  34.166  42.442  0.00  0.00    +0.013 A 
ATOM     14  C13 QAP A   1      49.970  35.512  40.032  0.00  0.00    +0.001 A 
ATOM     15  C15 QAP A   1      49.249  35.837  41.191  0.00  0.00    +0.000 A 
ATOM     16  C16 QAP A   1      49.513  35.160  42.395  0.00  0.00    +0.001 A 
ENDBRANCH   1  11
TORSDOF 2
ENDMDL
