MODEL 1
REMARK VINA RESULT:      -7.1      0.000      0.000
REMARK  3 active torsions:
REMARK  status: ('A' for Active; 'I' for Inactive)
REMARK    1  A    between atoms: C01_1  and  N02_19 
REMARK    2  A    between atoms: C03_12  and  C04_13 
REMARK    3  A    between atoms: C03_12  and  N02_19 
ROOT
ATOM      1  C04 UNK A   1      47.760  50.023  46.004  1.00  0.00    -0.098 C 
ATOM      2  C05 UNK A   1      48.180  51.119  45.759  1.00  0.00    -0.152 C 
ATOM      3  H09 UNK A   1      48.537  52.102  45.548  1.00  0.00     0.166 H 
ENDROOT
BRANCH   1   4
ATOM      4  C03 UNK A   1      47.210  48.706  46.338  1.00  0.00     0.047 C 
ATOM      5  H06 UNK A   1      47.165  48.602  47.430  1.00  0.00     0.083 H 
ATOM      6  H10 UNK A   1      47.901  47.938  45.963  1.00  0.00     0.083 H 
BRANCH   4   7
ATOM      7  N02 UNK A   1      45.883  48.499  45.735  1.00  0.00    -0.379 N 
ATOM      8  H08 UNK A   1      45.884  48.530  44.724  1.00  0.00     0.160 HD
BRANCH   7   9
ATOM      9  C01 UNK A   1      44.957  47.627  46.279  1.00  0.00     0.046 A 
ATOM     10  C02 UNK A   1      44.253  46.769  45.449  1.00  0.00    -0.006 A 
ATOM     11  C10 UNK A   1      43.373  45.828  45.923  1.00  0.00     0.164 A 
ATOM     12  H02 UNK A   1      44.428  46.833  44.382  1.00  0.00     0.093 H 
ATOM     13  N01 UNK A   1      42.724  45.016  45.176  1.00  0.00    -0.278 NA
ATOM     14  O01 UNK A   1      43.178  45.709  47.270  1.00  0.00    -0.292 OA
ATOM     15  H05 UNK A   1      42.942  45.172  44.190  1.00  0.00     0.189 HD
ATOM     16  C09 UNK A   1      43.747  46.570  48.170  1.00  0.00     0.090 A 
ATOM     17  C11 UNK A   1      43.410  46.462  49.529  1.00  0.00    -0.049 A 
ATOM     18  C15 UNK A   1      44.630  47.563  47.716  1.00  0.00     0.024 A 
ATOM     19  C12 UNK A   1      43.947  47.366  50.457  1.00  0.00    -0.080 A 
ATOM     20  H03 UNK A   1      42.727  45.684  49.857  1.00  0.00     0.087 H 
ATOM     21  C13 UNK A   1      44.800  48.387  50.016  1.00  0.00    -0.082 A 
ATOM     22  H01 UNK A   1      43.688  47.286  51.509  1.00  0.00     0.083 H 
ATOM     23  C14 UNK A   1      45.131  48.492  48.653  1.00  0.00    -0.068 A 
ATOM     24  H07 UNK A   1      45.201  49.103  50.728  1.00  0.00     0.083 H 
ATOM     25  H04 UNK A   1      45.769  49.310  48.339  1.00  0.00     0.085 H 
ENDBRANCH   7   9
ENDBRANCH   4   7
ENDBRANCH   1   4
TORSDOF 3
ENDMDL
MODEL 2
REMARK VINA RESULT:      -6.9      2.237      4.402
REMARK  3 active torsions:
REMARK  status: ('A' for Active; 'I' for Inactive)
REMARK    1  A    between atoms: C01_1  and  N02_19 
REMARK    2  A    between atoms: C03_12  and  C04_13 
REMARK    3  A    between atoms: C03_12  and  N02_19 
ROOT
ATOM      1  C04 UNK A   1      42.548  44.972  45.450  1.00  0.00    -0.098 C 
ATOM      2  C05 UNK A   1      42.729  43.865  45.027  1.00  0.00    -0.152 C 
ATOM      3  H09 UNK A   1      42.909  42.879  44.662  1.00  0.00     0.166 H 
ENDROOT
BRANCH   1   4
ATOM      4  C03 UNK A   1      42.361  46.316  46.006  1.00  0.00     0.047 C 
ATOM      5  H06 UNK A   1      42.589  46.295  47.080  1.00  0.00     0.083 H 
ATOM      6  H10 UNK A   1      41.302  46.589  45.901  1.00  0.00     0.083 H 
BRANCH   4   7
ATOM      7  N02 UNK A   1      43.191  47.315  45.313  1.00  0.00    -0.379 N 
ATOM      8  H08 UNK A   1      42.737  48.211  45.194  1.00  0.00     0.160 HD
BRANCH   7   9
ATOM      9  C01 UNK A   1      44.560  47.388  45.498  1.00  0.00     0.046 A 
ATOM     10  C02 UNK A   1      45.408  47.210  44.417  1.00  0.00    -0.006 A 
ATOM     11  C10 UNK A   1      46.772  47.339  44.510  1.00  0.00     0.164 A 
ATOM     12  H02 UNK A   1      44.967  46.982  43.454  1.00  0.00     0.093 H 
ATOM     13  N01 UNK A   1      47.572  47.194  43.521  1.00  0.00    -0.278 NA
ATOM     14  O01 UNK A   1      47.336  47.670  45.710  1.00  0.00    -0.292 OA
ATOM     15  H05 UNK A   1      47.061  46.961  42.668  1.00  0.00     0.189 HD
ATOM     16  C09 UNK A   1      46.599  47.771  46.859  1.00  0.00     0.090 A 
ATOM     17  C11 UNK A   1      47.259  47.997  48.078  1.00  0.00    -0.049 A 
ATOM     18  C15 UNK A   1      45.204  47.615  46.805  1.00  0.00     0.024 A 
ATOM     19  C12 UNK A   1      46.524  48.056  49.272  1.00  0.00    -0.080 A 
ATOM     20  H03 UNK A   1      48.338  48.117  48.095  1.00  0.00     0.087 H 
ATOM     21  C13 UNK A   1      45.136  47.865  49.241  1.00  0.00    -0.082 A 
ATOM     22  H01 UNK A   1      47.031  48.230  50.216  1.00  0.00     0.083 H 
ATOM     23  C14 UNK A   1      44.481  47.635  48.018  1.00  0.00    -0.068 A 
ATOM     24  H07 UNK A   1      44.565  47.888  50.165  1.00  0.00     0.083 H 
ATOM     25  H04 UNK A   1      43.411  47.462  48.030  1.00  0.00     0.085 H 
ENDBRANCH   7   9
ENDBRANCH   4   7
ENDBRANCH   1   4
TORSDOF 3
ENDMDL
MODEL 3
REMARK VINA RESULT:      -6.9      1.775      4.385
REMARK  3 active torsions:
REMARK  status: ('A' for Active; 'I' for Inactive)
REMARK    1  A    between atoms: C01_1  and  N02_19 
REMARK    2  A    between atoms: C03_12  and  C04_13 
REMARK    3  A    between atoms: C03_12  and  N02_19 
ROOT
ATOM      1  C04 UNK A   1      42.546  45.104  45.313  1.00  0.00    -0.098 C 
ATOM      2  C05 UNK A   1      42.589  43.927  45.088  1.00  0.00    -0.152 C 
ATOM      3  H09 UNK A   1      42.644  42.883  44.875  1.00  0.00     0.166 H 
ENDROOT
BRANCH   1   4
ATOM      4  C03 UNK A   1      42.544  46.547  45.571  1.00  0.00     0.047 C 
ATOM      5  H06 UNK A   1      42.350  46.721  46.638  1.00  0.00     0.083 H 
ATOM      6  H10 UNK A   1      41.714  46.997  45.008  1.00  0.00     0.083 H 
BRANCH   4   7
ATOM      7  N02 UNK A   1      43.809  47.178  45.158  1.00  0.00    -0.379 N 
ATOM      8  H08 UNK A   1      43.729  47.742  44.322  1.00  0.00     0.160 HD
BRANCH   7   9
ATOM      9  C01 UNK A   1      44.731  47.644  46.076  1.00  0.00     0.046 A 
ATOM     10  C02 UNK A   1      45.830  48.367  45.639  1.00  0.00    -0.006 A 
ATOM     11  C10 UNK A   1      46.747  48.922  46.496  1.00  0.00     0.164 A 
ATOM     12  H02 UNK A   1      45.951  48.517  44.572  1.00  0.00     0.093 H 
ATOM     13  N01 UNK A   1      47.760  49.606  46.114  1.00  0.00    -0.278 NA
ATOM     14  O01 UNK A   1      46.580  48.777  47.845  1.00  0.00    -0.292 OA
ATOM     15  H05 UNK A   1      47.795  49.670  45.095  1.00  0.00     0.189 HD
ATOM     16  C09 UNK A   1      45.587  48.000  48.378  1.00  0.00     0.090 A 
ATOM     17  C11 UNK A   1      45.546  47.800  49.768  1.00  0.00    -0.049 A 
ATOM     18  C15 UNK A   1      44.648  47.394  47.527  1.00  0.00     0.024 A 
ATOM     19  C12 UNK A   1      44.563  46.969  50.326  1.00  0.00    -0.080 A 
ATOM     20  H03 UNK A   1      46.280  48.281  50.406  1.00  0.00     0.087 H 
ATOM     21  C13 UNK A   1      43.642  46.326  49.488  1.00  0.00    -0.082 A 
ATOM     22  H01 UNK A   1      44.528  46.811  51.400  1.00  0.00     0.083 H 
ATOM     23  C14 UNK A   1      43.690  46.527  48.097  1.00  0.00    -0.068 A 
ATOM     24  H07 UNK A   1      42.892  45.664  49.914  1.00  0.00     0.083 H 
ATOM     25  H04 UNK A   1      42.983  45.993  47.474  1.00  0.00     0.085 H 
ENDBRANCH   7   9
ENDBRANCH   4   7
ENDBRANCH   1   4
TORSDOF 3
ENDMDL
MODEL 4
REMARK VINA RESULT:      -6.8     14.259     15.826
REMARK  3 active torsions:
REMARK  status: ('A' for Active; 'I' for Inactive)
REMARK    1  A    between atoms: C01_1  and  N02_19 
REMARK    2  A    between atoms: C03_12  and  C04_13 
REMARK    3  A    between atoms: C03_12  and  N02_19 
ROOT
ATOM      1  C04 UNK A   1      46.971  36.858  41.874  1.00  0.00    -0.098 C 
ATOM      2  C05 UNK A   1      46.327  37.695  42.442  1.00  0.00    -0.152 C 
ATOM      3  H09 UNK A   1      45.772  38.450  42.951  1.00  0.00     0.166 H 
ENDROOT
BRANCH   1   4
ATOM      4  C03 UNK A   1      47.798  35.871  41.175  1.00  0.00     0.047 C 
ATOM      5  H06 UNK A   1      47.356  35.663  40.191  1.00  0.00     0.083 H 
ATOM      6  H10 UNK A   1      47.777  34.934  41.748  1.00  0.00     0.083 H 
BRANCH   4   7
ATOM      7  N02 UNK A   1      49.192  36.324  41.038  1.00  0.00    -0.379 N 
ATOM      8  H08 UNK A   1      49.502  36.925  41.790  1.00  0.00     0.160 HD
BRANCH   7   9
ATOM      9  C01 UNK A   1      50.180  35.512  40.512  1.00  0.00     0.046 A 
ATOM     10  C02 UNK A   1      50.530  35.633  39.176  1.00  0.00    -0.006 A 
ATOM     11  C10 UNK A   1      51.548  34.912  38.604  1.00  0.00     0.164 A 
ATOM     12  H02 UNK A   1      49.986  36.347  38.570  1.00  0.00     0.093 H 
ATOM     13  N01 UNK A   1      51.898  35.020  37.377  1.00  0.00    -0.278 NA
ATOM     14  O01 UNK A   1      52.269  34.041  39.371  1.00  0.00    -0.292 OA
ATOM     15  H05 UNK A   1      51.312  35.700  36.888  1.00  0.00     0.189 HD
ATOM     16  C09 UNK A   1      51.944  33.774  40.673  1.00  0.00     0.090 A 
ATOM     17  C11 UNK A   1      52.654  32.780  41.367  1.00  0.00    -0.049 A 
ATOM     18  C15 UNK A   1      50.888  34.472  41.282  1.00  0.00     0.024 A 
ATOM     19  C12 UNK A   1      52.303  32.460  42.687  1.00  0.00    -0.080 A 
ATOM     20  H03 UNK A   1      53.469  32.255  40.876  1.00  0.00     0.087 H 
ATOM     21  C13 UNK A   1      51.227  33.120  43.296  1.00  0.00    -0.082 A 
ATOM     22  H01 UNK A   1      52.850  31.692  43.226  1.00  0.00     0.083 H 
ATOM     23  C14 UNK A   1      50.517  34.112  42.596  1.00  0.00    -0.068 A 
ATOM     24  H07 UNK A   1      50.938  32.860  44.311  1.00  0.00     0.083 H 
ATOM     25  H04 UNK A   1      49.673  34.583  43.084  1.00  0.00     0.085 H 
ENDBRANCH   7   9
ENDBRANCH   4   7
ENDBRANCH   1   4
TORSDOF 3
ENDMDL
MODEL 5
REMARK VINA RESULT:      -6.7      2.340      5.496
REMARK  3 active torsions:
REMARK  status: ('A' for Active; 'I' for Inactive)
REMARK    1  A    between atoms: C01_1  and  N02_19 
REMARK    2  A    between atoms: C03_12  and  C04_13 
REMARK    3  A    between atoms: C03_12  and  N02_19 
ROOT
ATOM      1  C04 UNK A   1      42.083  46.338  45.264  1.00  0.00    -0.098 C 
ATOM      2  C05 UNK A   1      41.072  46.972  45.144  1.00  0.00    -0.152 C 
ATOM      3  H09 UNK A   1      40.163  47.518  45.032  1.00  0.00     0.166 H 
ENDROOT
BRANCH   1   4
ATOM      4  C03 UNK A   1      43.289  45.519  45.418  1.00  0.00     0.047 C 
ATOM      5  H06 UNK A   1      43.863  45.547  44.482  1.00  0.00     0.083 H 
ATOM      6  H10 UNK A   1      42.979  44.477  45.582  1.00  0.00     0.083 H 
BRANCH   4   7
ATOM      7  N02 UNK A   1      44.112  45.965  46.553  1.00  0.00    -0.379 N 
ATOM      8  H08 UNK A   1      44.585  45.211  47.036  1.00  0.00     0.160 HD
BRANCH   7   9
ATOM      9  C01 UNK A   1      44.814  47.156  46.529  1.00  0.00     0.046 A 
ATOM     10  C02 UNK A   1      44.612  48.092  47.530  1.00  0.00    -0.006 A 
ATOM     11  C10 UNK A   1      45.323  49.264  47.611  1.00  0.00     0.164 A 
ATOM     12  H02 UNK A   1      43.876  47.872  48.294  1.00  0.00     0.093 H 
ATOM     13  N01 UNK A   1      45.164  50.134  48.536  1.00  0.00    -0.278 NA
ATOM     14  O01 UNK A   1      46.285  49.531  46.679  1.00  0.00    -0.292 OA
ATOM     15  H05 UNK A   1      44.435  49.844  49.190  1.00  0.00     0.189 HD
ATOM     16  C09 UNK A   1      46.496  48.723  45.594  1.00  0.00     0.090 A 
ATOM     17  C11 UNK A   1      47.419  49.120  44.613  1.00  0.00    -0.049 A 
ATOM     18  C15 UNK A   1      45.765  47.531  45.465  1.00  0.00     0.024 A 
ATOM     19  C12 UNK A   1      47.613  48.327  43.472  1.00  0.00    -0.080 A 
ATOM     20  H03 UNK A   1      47.975  50.044  44.735  1.00  0.00     0.087 H 
ATOM     21  C13 UNK A   1      46.863  47.153  43.309  1.00  0.00    -0.082 A 
ATOM     22  H01 UNK A   1      48.326  48.631  42.711  1.00  0.00     0.083 H 
ATOM     23  C14 UNK A   1      45.938  46.763  44.293  1.00  0.00    -0.068 A 
ATOM     24  H07 UNK A   1      46.994  46.547  42.417  1.00  0.00     0.083 H 
ATOM     25  H04 UNK A   1      45.353  45.866  44.124  1.00  0.00     0.085 H 
ENDBRANCH   7   9
ENDBRANCH   4   7
ENDBRANCH   1   4
TORSDOF 3
ENDMDL
MODEL 6
REMARK VINA RESULT:      -6.7     14.409     16.194
REMARK  3 active torsions:
REMARK  status: ('A' for Active; 'I' for Inactive)
REMARK    1  A    between atoms: C01_1  and  N02_19 
REMARK    2  A    between atoms: C03_12  and  C04_13 
REMARK    3  A    between atoms: C03_12  and  N02_19 
ROOT
ATOM      1  C04 UNK A   1      47.104  36.899  41.836  1.00  0.00    -0.098 C 
ATOM      2  C05 UNK A   1      46.493  37.769  42.390  1.00  0.00    -0.152 C 
ATOM      3  H09 UNK A   1      45.968  38.551  42.889  1.00  0.00     0.166 H 
ENDROOT
BRANCH   1   4
ATOM      4  C03 UNK A   1      47.895  35.866  41.159  1.00  0.00     0.047 C 
ATOM      5  H06 UNK A   1      47.511  35.729  40.140  1.00  0.00     0.083 H 
ATOM      6  H10 UNK A   1      47.753  34.917  41.694  1.00  0.00     0.083 H 
BRANCH   4   7
ATOM      7  N02 UNK A   1      49.329  36.201  41.139  1.00  0.00    -0.379 N 
ATOM      8  H08 UNK A   1      49.553  37.065  41.615  1.00  0.00     0.160 HD
BRANCH   7   9
ATOM      9  C01 UNK A   1      50.311  35.231  41.225  1.00  0.00     0.046 A 
ATOM     10  C02 UNK A   1      50.689  34.745  42.466  1.00  0.00    -0.006 A 
ATOM     11  C10 UNK A   1      51.604  33.733  42.623  1.00  0.00     0.164 A 
ATOM     12  H02 UNK A   1      50.220  35.170  43.345  1.00  0.00     0.093 H 
ATOM     13  N01 UNK A   1      51.955  33.258  43.759  1.00  0.00    -0.278 NA
ATOM     14  O01 UNK A   1      52.168  33.159  41.519  1.00  0.00    -0.292 OA
ATOM     15  H05 UNK A   1      51.475  33.739  44.522  1.00  0.00     0.189 HD
ATOM     16  C09 UNK A   1      51.940  33.630  40.254  1.00  0.00     0.090 A 
ATOM     17  C11 UNK A   1      52.645  33.069  39.177  1.00  0.00    -0.049 A 
ATOM     18  C15 UNK A   1      51.032  34.684  40.060  1.00  0.00     0.024 A 
ATOM     19  C12 UNK A   1      52.458  33.571  37.880  1.00  0.00    -0.080 A 
ATOM     20  H03 UNK A   1      53.339  32.253  39.351  1.00  0.00     0.087 H 
ATOM     21  C13 UNK A   1      51.584  34.648  37.674  1.00  0.00    -0.082 A 
ATOM     22  H01 UNK A   1      53.002  33.140  37.045  1.00  0.00     0.083 H 
ATOM     23  C14 UNK A   1      50.884  35.208  38.757  1.00  0.00    -0.068 A 
ATOM     24  H07 UNK A   1      51.453  35.054  36.675  1.00  0.00     0.083 H 
ATOM     25  H04 UNK A   1      50.238  36.058  38.570  1.00  0.00     0.085 H 
ENDBRANCH   7   9
ENDBRANCH   4   7
ENDBRANCH   1   4
TORSDOF 3
ENDMDL
MODEL 7
REMARK VINA RESULT:      -6.6     20.433     22.248
REMARK  3 active torsions:
REMARK  status: ('A' for Active; 'I' for Inactive)
REMARK    1  A    between atoms: C01_1  and  N02_19 
REMARK    2  A    between atoms: C03_12  and  C04_13 
REMARK    3  A    between atoms: C03_12  and  N02_19 
ROOT
ATOM      1  C04 UNK A   1      43.366  23.551  41.433  1.00  0.00    -0.098 C 
ATOM      2  C05 UNK A   1      43.542  22.975  40.397  1.00  0.00    -0.152 C 
ATOM      3  H09 UNK A   1      43.679  22.457  39.475  1.00  0.00     0.166 H 
ENDROOT
BRANCH   1   4
ATOM      4  C03 UNK A   1      43.097  24.256  42.691  1.00  0.00     0.047 C 
ATOM      5  H06 UNK A   1      43.362  23.602  43.532  1.00  0.00     0.083 H 
ATOM      6  H10 UNK A   1      42.017  24.451  42.753  1.00  0.00     0.083 H 
BRANCH   4   7
ATOM      7  N02 UNK A   1      43.825  25.533  42.769  1.00  0.00    -0.379 N 
ATOM      8  H08 UNK A   1      44.786  25.437  43.069  1.00  0.00     0.160 HD
BRANCH   7   9
ATOM      9  C01 UNK A   1      43.608  26.558  41.867  1.00  0.00     0.046 A 
ATOM     10  C02 UNK A   1      42.318  27.011  41.640  1.00  0.00    -0.006 A 
ATOM     11  C10 UNK A   1      42.034  28.071  40.815  1.00  0.00     0.164 A 
ATOM     12  H02 UNK A   1      41.505  26.518  42.160  1.00  0.00     0.093 H 
ATOM     13  N01 UNK A   1      40.851  28.516  40.604  1.00  0.00    -0.278 NA
ATOM     14  O01 UNK A   1      43.055  28.729  40.189  1.00  0.00    -0.292 OA
ATOM     15  H05 UNK A   1      40.158  27.971  41.120  1.00  0.00     0.189 HD
ATOM     16  C09 UNK A   1      44.353  28.302  40.266  1.00  0.00     0.090 A 
ATOM     17  C11 UNK A   1      45.335  28.955  39.503  1.00  0.00    -0.049 A 
ATOM     18  C15 UNK A   1      44.675  27.203  41.079  1.00  0.00     0.024 A 
ATOM     19  C12 UNK A   1      46.662  28.501  39.533  1.00  0.00    -0.080 A 
ATOM     20  H03 UNK A   1      45.063  29.805  38.885  1.00  0.00     0.087 H 
ATOM     21  C13 UNK A   1      46.994  27.382  40.309  1.00  0.00    -0.082 A 
ATOM     22  H01 UNK A   1      47.424  29.004  38.944  1.00  0.00     0.083 H 
ATOM     23  C14 UNK A   1      46.006  26.730  41.068  1.00  0.00    -0.068 A 
ATOM     24  H07 UNK A   1      48.016  27.013  40.318  1.00  0.00     0.083 H 
ATOM     25  H04 UNK A   1      46.288  25.850  41.634  1.00  0.00     0.085 H 
ENDBRANCH   7   9
ENDBRANCH   4   7
ENDBRANCH   1   4
TORSDOF 3
ENDMDL
MODEL 8
REMARK VINA RESULT:      -6.6     20.161     20.961
REMARK  3 active torsions:
REMARK  status: ('A' for Active; 'I' for Inactive)
REMARK    1  A    between atoms: C01_1  and  N02_19 
REMARK    2  A    between atoms: C03_12  and  C04_13 
REMARK    3  A    between atoms: C03_12  and  N02_19 
ROOT
ATOM      1  C04 UNK A   1      43.640  27.088  45.961  1.00  0.00    -0.098 C 
ATOM      2  C05 UNK A   1      43.132  26.510  46.880  1.00  0.00    -0.152 C 
ATOM      3  H09 UNK A   1      42.665  26.010  47.698  1.00  0.00     0.166 H 
ENDROOT
BRANCH   1   4
ATOM      4  C03 UNK A   1      44.214  27.820  44.827  1.00  0.00     0.047 C 
ATOM      5  H06 UNK A   1      45.234  28.134  45.082  1.00  0.00     0.083 H 
ATOM      6  H10 UNK A   1      43.620  28.730  44.667  1.00  0.00     0.083 H 
BRANCH   4   7
ATOM      7  N02 UNK A   1      44.206  27.013  43.595  1.00  0.00    -0.379 N 
ATOM      8  H08 UNK A   1      43.900  26.059  43.734  1.00  0.00     0.160 HD
BRANCH   7   9
ATOM      9  C01 UNK A   1      43.863  27.550  42.368  1.00  0.00     0.046 A 
ATOM     10  C02 UNK A   1      42.529  27.773  42.064  1.00  0.00    -0.006 A 
ATOM     11  C10 UNK A   1      42.119  28.368  40.897  1.00  0.00     0.164 A 
ATOM     12  H02 UNK A   1      41.784  27.484  42.796  1.00  0.00     0.093 H 
ATOM     13  N01 UNK A   1      40.894  28.597  40.604  1.00  0.00    -0.278 NA
ATOM     14  O01 UNK A   1      43.052  28.777  39.987  1.00  0.00    -0.292 OA
ATOM     15  H05 UNK A   1      40.273  28.269  41.346  1.00  0.00     0.189 HD
ATOM     16  C09 UNK A   1      44.387  28.516  40.143  1.00  0.00     0.090 A 
ATOM     17  C11 UNK A   1      45.278  28.861  39.113  1.00  0.00    -0.049 A 
ATOM     18  C15 UNK A   1      44.838  27.883  41.312  1.00  0.00     0.024 A 
ATOM     19  C12 UNK A   1      46.642  28.558  39.236  1.00  0.00    -0.080 A 
ATOM     20  H03 UNK A   1      44.906  29.353  38.219  1.00  0.00     0.087 H 
ATOM     21  C13 UNK A   1      47.103  27.891  40.379  1.00  0.00    -0.082 A 
ATOM     22  H01 UNK A   1      47.333  28.823  38.440  1.00  0.00     0.083 H 
ATOM     23  C14 UNK A   1      46.207  27.546  41.406  1.00  0.00    -0.068 A 
ATOM     24  H07 UNK A   1      48.155  27.636  40.469  1.00  0.00     0.083 H 
ATOM     25  H04 UNK A   1      46.589  27.005  42.264  1.00  0.00     0.085 H 
ENDBRANCH   7   9
ENDBRANCH   4   7
ENDBRANCH   1   4
TORSDOF 3
ENDMDL
MODEL 9
REMARK VINA RESULT:      -6.3     19.646     20.382
REMARK  3 active torsions:
REMARK  status: ('A' for Active; 'I' for Inactive)
REMARK    1  A    between atoms: C01_1  and  N02_19 
REMARK    2  A    between atoms: C03_12  and  C04_13 
REMARK    3  A    between atoms: C03_12  and  N02_19 
ROOT
ATOM      1  C04 UNK A   1      46.712  27.663  39.959  1.00  0.00    -0.098 C 
ATOM      2  C05 UNK A   1      47.466  28.258  39.242  1.00  0.00    -0.152 C 
ATOM      3  H09 UNK A   1      48.152  28.776  38.611  1.00  0.00     0.166 H 
ENDROOT
BRANCH   1   4
ATOM      4  C03 UNK A   1      45.827  26.895  40.841  1.00  0.00     0.047 C 
ATOM      5  H06 UNK A   1      46.403  26.092  41.318  1.00  0.00     0.083 H 
ATOM      6  H10 UNK A   1      45.052  26.420  40.223  1.00  0.00     0.083 H 
BRANCH   4   7
ATOM      7  N02 UNK A   1      45.184  27.752  41.851  1.00  0.00    -0.379 N 
ATOM      8  H08 UNK A   1      45.698  28.599  42.055  1.00  0.00     0.160 HD
BRANCH   7   9
ATOM      9  C01 UNK A   1      43.810  27.883  41.936  1.00  0.00     0.046 A 
ATOM     10  C02 UNK A   1      43.043  27.834  40.782  1.00  0.00    -0.006 A 
ATOM     11  C10 UNK A   1      41.671  27.884  40.796  1.00  0.00     0.164 A 
ATOM     12  H02 UNK A   1      43.555  27.726  39.834  1.00  0.00     0.093 H 
ATOM     13  N01 UNK A   1      40.944  27.824  39.744  1.00  0.00    -0.278 NA
ATOM     14  O01 UNK A   1      41.014  27.975  41.990  1.00  0.00    -0.292 OA
ATOM     15  H05 UNK A   1      41.520  27.747  38.904  1.00  0.00     0.189 HD
ATOM     16  C09 UNK A   1      41.676  28.129  43.178  1.00  0.00     0.090 A 
ATOM     17  C11 UNK A   1      40.935  28.335  44.354  1.00  0.00    -0.049 A 
ATOM     18  C15 UNK A   1      43.080  28.111  43.197  1.00  0.00     0.024 A 
ATOM     19  C12 UNK A   1      41.599  28.543  45.572  1.00  0.00    -0.080 A 
ATOM     20  H03 UNK A   1      39.850  28.342  44.315  1.00  0.00     0.087 H 
ATOM     21  C13 UNK A   1      43.000  28.566  45.603  1.00  0.00    -0.082 A 
ATOM     22  H01 UNK A   1      41.029  28.702  46.483  1.00  0.00     0.083 H 
ATOM     23  C14 UNK A   1      43.736  28.362  44.422  1.00  0.00    -0.068 A 
ATOM     24  H07 UNK A   1      43.518  28.747  46.540  1.00  0.00     0.083 H 
ATOM     25  H04 UNK A   1      44.817  28.415  44.473  1.00  0.00     0.085 H 
ENDBRANCH   7   9
ENDBRANCH   4   7
ENDBRANCH   1   4
TORSDOF 3
ENDMDL
